/*--------------------------------*- C++ -*----------------------------------*\
| =========                 |                                                 |
| \\      /  F ield         | OpenFOAM: The Open Source CFD Toolbox           |
|  \\    /   O peration     | Version:  2012                                  |
|   \\  /    A nd           | Website:  www.openfoam.com                      |
|    \\/     M anipulation  |                                                 |
\*---------------------------------------------------------------------------*/
FoamFile
{
    version     2.0;
    format      ascii;
    class       extendedFeatureEdgeMesh;
    location    "constant/extendedFeatureEdgeMesh";
    object      coils3Simp.extendedFeatureEdgeMesh;
}
// * * * * * * * * * * * * * * * * * * * * * * * * * * * * * * * * * * * * * //

// points

72
(
(0.16239411 0.30000001 0.4454222)
(0.1612155 0.30000001 0.4451063)
(0.16 0.30000001 0.44499999)
(0.15878449 0.30000001 0.4451063)
(0.1653623 0.30000001 0.4475005)
(0.16449951 0.30000001 0.44663769)
(0.1635 0.30000001 0.44593781)
(0.16689371 0.30000001 0.4507845)
(0.1665778 0.30000001 0.44960591)
(0.16606221 0.30000001 0.44850001)
(0.1665778 0.30000001 0.4543941)
(0.16689371 0.30000001 0.45321551)
(0.167 0.30000001 0.45199999)
(0.16449951 0.30000001 0.45736229)
(0.1653623 0.30000001 0.45649949)
(0.16606221 0.30000001 0.45550001)
(0.1612155 0.30000001 0.45889369)
(0.16239411 0.30000001 0.45857781)
(0.1635 0.30000001 0.4580622)
(0.1576059 0.30000001 0.45857781)
(0.15878449 0.30000001 0.45889369)
(0.16 0.30000001 0.45899999)
(0.15463769 0.30000001 0.45649949)
(0.1555005 0.30000001 0.45736229)
(0.1565 0.30000001 0.4580622)
(0.1531063 0.30000001 0.45321551)
(0.1534221 0.30000001 0.4543941)
(0.1539378 0.30000001 0.45550001)
(0.1534221 0.30000001 0.44960591)
(0.1531063 0.30000001 0.4507845)
(0.153 0.30000001 0.45199999)
(0.1555005 0.30000001 0.44663769)
(0.15463769 0.30000001 0.4475005)
(0.1539378 0.30000001 0.44850001)
(0.1576059 0.30000001 0.4454222)
(0.1565 0.30000001 0.44593781)
(0.2123941 0.30000001 0.4454222)
(0.2112155 0.30000001 0.4451063)
(0.20999999 0.30000001 0.44499999)
(0.20878451 0.30000001 0.4451063)
(0.2153623 0.30000001 0.4475005)
(0.2144995 0.30000001 0.44663769)
(0.21349999 0.30000001 0.44593781)
(0.2168937 0.30000001 0.4507845)
(0.2165778 0.30000001 0.44960591)
(0.2160622 0.30000001 0.44850001)
(0.2165778 0.30000001 0.4543941)
(0.2168937 0.30000001 0.45321551)
(0.21699999 0.30000001 0.45199999)
(0.2144995 0.30000001 0.45736229)
(0.2153623 0.30000001 0.45649949)
(0.2160622 0.30000001 0.45550001)
(0.2112155 0.30000001 0.45889369)
(0.2123941 0.30000001 0.45857781)
(0.21349999 0.30000001 0.4580622)
(0.2076059 0.30000001 0.45857781)
(0.20878451 0.30000001 0.45889369)
(0.20999999 0.30000001 0.45899999)
(0.20463771 0.30000001 0.45649949)
(0.2055005 0.30000001 0.45736229)
(0.20649999 0.30000001 0.4580622)
(0.2031063 0.30000001 0.45321551)
(0.2034222 0.30000001 0.4543941)
(0.2039378 0.30000001 0.45550001)
(0.2034222 0.30000001 0.44960591)
(0.2031063 0.30000001 0.4507845)
(0.20299999 0.30000001 0.45199999)
(0.2055005 0.30000001 0.44663769)
(0.20463771 0.30000001 0.4475005)
(0.2039378 0.30000001 0.44850001)
(0.2076059 0.30000001 0.4454222)
(0.20649999 0.30000001 0.44593781)
)

// edges

72
(
(0 1)
(1 2)
(2 3)
(4 5)
(5 6)
(6 0)
(7 8)
(8 9)
(9 4)
(10 11)
(11 12)
(12 7)
(13 14)
(14 15)
(15 10)
(16 17)
(17 18)
(18 13)
(19 20)
(20 21)
(21 16)
(22 23)
(23 24)
(24 19)
(25 26)
(26 27)
(27 22)
(28 29)
(29 30)
(30 25)
(31 32)
(32 33)
(33 28)
(3 34)
(34 35)
(35 31)
(36 37)
(37 38)
(38 39)
(40 41)
(41 42)
(42 36)
(43 44)
(44 45)
(45 40)
(46 47)
(47 48)
(48 43)
(49 50)
(50 51)
(51 46)
(52 53)
(53 54)
(54 49)
(55 56)
(56 57)
(57 52)
(58 59)
(59 60)
(60 55)
(61 62)
(62 63)
(63 58)
(64 65)
(65 66)
(66 61)
(67 68)
(68 69)
(69 64)
(39 70)
(70 71)
(71 67)
)

// concaveStart mixedStart nonFeatureStart
0 0 0
// internalStart flatStart openStart multipleStart
72 72 72 72
// normals

144
(
(0 1 0)
(0.25889377 0 -0.9659058)
(0 1 0)
(0.087124985 0 -0.99619739)
(0 1 0)
(-0.087124985 0 -0.99619739)
(0 1 0)
(0.70711289 0 -0.70710068)
(0 1 0)
(0.57358364 0 -0.819147)
(0 1 0)
(0.42256788 0 -0.90633128)
(0 1 0)
(0.96590498 0 -0.25889683)
(0 1 0)
(0.90633814 0 -0.42255317)
(0 1 0)
(0.81913552 0 -0.57360003)
(0 1 0)
(0.96590498 -0 0.25889683)
(0 1 0)
(0.99619854 -0 0.087111805)
(-0 1 0)
(0.99619836 0 -0.087113925)
(0 1 0)
(0.70711289 -0 0.70710068)
(0 1 0)
(0.81912749 -0 0.57361151)
(0 1 0)
(0.90633814 -0 0.42255317)
(0 1 0)
(0.25887099 -0 0.96591191)
(0 1 0)
(0.42256788 -0 0.90633128)
(0 1 0)
(0.57360003 -0 0.81913552)
(-0 1 0)
(-0.25887404 0 0.96591109)
(0 1 -0)
(-0.087124985 0 0.99619739)
(0 1 0)
(0.087124985 -0 0.99619739)
(-0 1 0)
(-0.70710678 0 0.70710678)
(0 1 0)
(-0.57360577 0 0.81913151)
(0 1 0)
(-0.4225632 0 0.90633346)
(-0 1 0)
(-0.96592636 0 0.25881707)
(0 1 0)
(-0.9063054 0 0.42262339)
(0 1 0)
(-0.81913323 0 0.57360331)
(0 1 -0)
(-0.96592636 0 -0.25881707)
(0 1 0)
(-0.9961973 0 -0.087126045)
(0 1 0)
(-0.99619748 0 0.087123925)
(0 1 -0)
(-0.70710678 0 -0.70710678)
(0 1 0)
(-0.81914126 0 -0.57359184)
(0 1 0)
(-0.9063054 0 -0.42262339)
(0 1 -0)
(-0.25889683 0 -0.96590498)
(0 1 0)
(-0.4225632 0 -0.90633346)
(0 1 0)
(-0.57358938 0 -0.81914298)
(0 1 0)
(0.25889377 0 -0.9659058)
(0 1 0)
(0.087124985 0 -0.99619739)
(0 1 0)
(-0.087126045 0 -0.9961973)
(0 1 0)
(0.70711289 0 -0.70710068)
(0 1 0)
(0.57358364 0 -0.819147)
(0 1 0)
(0.42256788 0 -0.90633128)
(0 1 0)
(0.96590498 0 -0.25889683)
(0 1 0)
(0.90633814 0 -0.42255317)
(0 1 0)
(0.81913552 0 -0.57360003)
(0 1 0)
(0.96590498 0 0.25889683)
(0 1 0)
(0.99619854 0 0.087111805)
(-0 1 0)
(0.99619836 0 -0.087113925)
(0 1 0)
(0.70711289 0 0.70710068)
(0 1 0)
(0.81912749 0 0.57361151)
(0 1 0)
(0.90633814 0 0.42255317)
(0 1 0)
(0.25887099 0 0.96591191)
(0 1 0)
(0.42256788 0 0.90633128)
(0 1 0)
(0.57360003 0 0.81913552)
(-0 1 0)
(-0.25887099 0 0.96591191)
(0 1 -0)
(-0.087126045 0 0.9961973)
(0 1 0)
(0.087124985 0 0.99619739)
(-0 1 0)
(-0.70711289 0 0.70710068)
(0 1 0)
(-0.57360577 0 0.81913151)
(0 1 0)
(-0.4225632 0 0.90633346)
(-0 1 0)
(-0.96590498 0 0.25889683)
(0 1 0)
(-0.90633814 0 0.42255317)
(0 1 0)
(-0.81912749 0 0.57361151)
(0 1 -0)
(-0.96590498 0 -0.25889683)
(0 1 0)
(-0.9961973 0 -0.087126045)
(0 1 0)
(-0.99619748 0 0.087123925)
(0 1 -0)
(-0.70711289 0 -0.70710068)
(0 1 0)
(-0.81913552 0 -0.57360003)
(0 1 0)
(-0.90633814 0 -0.42255317)
(0 1 -0)
(-0.25889377 0 -0.9659058)
(0 1 0)
(-0.4225632 0 -0.90633346)
(0 1 0)
(-0.57358938 0 -0.81914298)
)

// normal volume types

144
(
0
0
0
0
0
0
0
0
0
0
0
0
0
0
0
0
0
0
0
0
0
0
0
0
0
0
0
0
0
0
0
0
0
0
0
0
0
0
0
0
0
0
0
0
0
0
0
0
0
0
0
0
0
0
0
0
0
0
0
0
0
0
0
0
0
0
0
0
0
0
0
0
0
0
0
0
0
0
0
0
0
0
0
0
0
0
0
0
0
0
0
0
0
0
0
0
0
0
0
0
0
0
0
0
0
0
0
0
0
0
0
0
0
0
0
0
0
0
0
0
0
0
0
0
0
0
0
0
0
0
0
0
0
0
0
0
0
0
0
0
0
0
0
0
)

// normalDirections

72
(
2(1 -1)
2(1 -1)
2(1 -1)
2(1 -1)
2(1 -1)
2(1 -1)
2(1 -1)
2(1 -1)
2(1 -1)
2(1 -1)
2(1 -1)
2(1 -1)
2(1 -1)
2(1 -1)
2(1 -1)
2(1 -1)
2(1 -1)
2(1 -1)
2(1 -1)
2(1 -1)
2(1 -1)
2(1 -1)
2(1 -1)
2(1 -1)
2(1 -1)
2(1 -1)
2(1 -1)
2(1 -1)
2(1 -1)
2(1 -1)
2(1 -1)
2(1 -1)
2(1 -1)
2(1 -1)
2(1 -1)
2(1 -1)
2(1 -1)
2(1 -1)
2(1 -1)
2(1 -1)
2(1 -1)
2(1 -1)
2(1 -1)
2(1 -1)
2(1 -1)
2(1 -1)
2(1 -1)
2(1 -1)
2(1 -1)
2(1 -1)
2(1 -1)
2(1 -1)
2(1 -1)
2(1 -1)
2(1 -1)
2(1 -1)
2(1 -1)
2(1 -1)
2(1 -1)
2(1 -1)
2(1 -1)
2(1 -1)
2(1 -1)
2(1 -1)
2(1 -1)
2(1 -1)
2(1 -1)
2(1 -1)
2(1 -1)
2(1 -1)
2(1 -1)
2(1 -1)
)

// edgeNormals

72
(
2(0 1)
2(2 3)
2(4 5)
2(6 7)
2(8 9)
2(10 11)
2(12 13)
2(14 15)
2(16 17)
2(18 19)
2(20 21)
2(22 23)
2(24 25)
2(26 27)
2(28 29)
2(30 31)
2(32 33)
2(34 35)
2(36 37)
2(38 39)
2(40 41)
2(42 43)
2(44 45)
2(46 47)
2(48 49)
2(50 51)
2(52 53)
2(54 55)
2(56 57)
2(58 59)
2(60 61)
2(62 63)
2(64 65)
2(66 67)
2(68 69)
2(70 71)
2(72 73)
2(74 75)
2(76 77)
2(78 79)
2(80 81)
2(82 83)
2(84 85)
2(86 87)
2(88 89)
2(90 91)
2(92 93)
2(94 95)
2(96 97)
2(98 99)
2(100 101)
2(102 103)
2(104 105)
2(106 107)
2(108 109)
2(110 111)
2(112 113)
2(114 115)
2(116 117)
2(118 119)
2(120 121)
2(122 123)
2(124 125)
2(126 127)
2(128 129)
2(130 131)
2(132 133)
2(134 135)
2(136 137)
2(138 139)
2(140 141)
2(142 143)
)

// featurePointNormals
0()
// featurePointEdges
0()
// regionEdges
0()


// ************************************************************************* //
