/*--------------------------------*- C++ -*----------------------------------*\
| =========                 |                                                 |
| \\      /  F ield         | OpenFOAM: The Open Source CFD Toolbox           |
|  \\    /   O peration     | Version:  2012                                  |
|   \\  /    A nd           | Website:  www.openfoam.com                      |
|    \\/     M anipulation  |                                                 |
\*---------------------------------------------------------------------------*/
FoamFile
{
    version     2.0;
    format      ascii;
    class       extendedFeatureEdgeMesh;
    location    "constant/extendedFeatureEdgeMesh";
    object      coils3.extendedFeatureEdgeMesh;
}
// * * * * * * * * * * * * * * * * * * * * * * * * * * * * * * * * * * * * * //

// points

228
(
(0.0069380528 -0.00092920352 0.40000001)
(0.0070000002 0 0.40000001)
(0.0069380528 0.00092920352 0.40000001)
(0.0068936539 0.001215537 0.40000001)
(0.006577848 -0.0023941409 0.40000001)
(0.0067199999 -0.00196 0.40000001)
(0.0068936539 -0.001215537 0.40000001)
(0.005982196 -0.0036350151 0.40000001)
(0.0060621779 -0.0035000001 0.40000001)
(0.006535809 -0.002506631 0.40000001)
(0.0044995132 -0.0053623109 0.40000001)
(0.005140983 -0.0047508199 0.40000001)
(0.0053623109 -0.0044995132 0.40000001)
(0.003294118 -0.0061764708 0.40000001)
(0.0035000001 -0.0060621779 0.40000001)
(0.0039857649 -0.005754448 0.40000001)
(0.001215537 -0.0068936539 0.40000001)
(0.001723077 -0.006784616 0.40000001)
(0.0023941409 -0.006577848 0.40000001)
(-0.00087159529 -0.0069455248 0.40000001)
(-8.6736169e-19 -0.0070000002 0.40000001)
(0.00087159529 -0.0069455248 0.40000001)
(-0.0023941409 -0.006577848 0.40000001)
(-0.001723077 -0.006784616 0.40000001)
(-0.001215537 -0.0068936539 0.40000001)
(-0.0039857649 -0.005754448 0.40000001)
(-0.0035000001 -0.0060621779 0.40000001)
(-0.0025358491 -0.0065245279 0.40000001)
(-0.0053623109 -0.0044995132 0.40000001)
(-0.0046027401 -0.0052739731 0.40000001)
(-0.0044995132 -0.0053623109 0.40000001)
(-0.006292135 -0.0030674159 0.40000001)
(-0.0060621779 -0.0035000001 0.40000001)
(-0.0055999998 -0.0041999999 0.40000001)
(-0.0068936539 -0.001215537 0.40000001)
(-0.0067199999 -0.00196 0.40000001)
(-0.006577848 -0.0023941409 0.40000001)
(-0.0069380528 0.00092920352 0.40000001)
(-0.0070000002 8.5725282e-19 0.40000001)
(-0.0069380528 -0.00092920352 0.40000001)
(-0.006577848 0.0023941409 0.40000001)
(-0.0067199999 0.00196 0.40000001)
(-0.0068936539 0.001215537 0.40000001)
(-0.005982196 0.0036350151 0.40000001)
(-0.0060621779 0.0035000001 0.40000001)
(-0.006535809 0.002506631 0.40000001)
(-0.0044995132 0.0053623109 0.40000001)
(-0.005140983 0.0047508199 0.40000001)
(-0.0053623109 0.0044995132 0.40000001)
(-0.003294118 0.0061764708 0.40000001)
(-0.0035000001 0.0060621779 0.40000001)
(-0.0039857649 0.005754448 0.40000001)
(-0.001215537 0.0068936539 0.40000001)
(-0.001723077 0.006784616 0.40000001)
(-0.0023941409 0.006577848 0.40000001)
(0.00087159529 0.0069455248 0.40000001)
(4.3368092e-19 0.0070000002 0.40000001)
(-0.00087159529 0.0069455248 0.40000001)
(0.0023941409 0.006577848 0.40000001)
(0.001723077 0.006784616 0.40000001)
(0.001215537 0.0068936539 0.40000001)
(0.0039857649 0.005754448 0.40000001)
(0.0035000001 0.0060621779 0.40000001)
(0.0025358491 0.0065245279 0.40000001)
(0.0053623109 0.0044995132 0.40000001)
(0.0046027401 0.0052739731 0.40000001)
(0.0044995132 0.0053623109 0.40000001)
(0.006292135 0.0030674159 0.40000001)
(0.0060621779 0.0035000001 0.40000001)
(0.0055999998 0.0041999999 0.40000001)
(0.0067199999 0.00196 0.40000001)
(0.006577848 0.0023941409 0.40000001)
(0.0070000002 2.227114e-20 -0.025)
(0.0068936539 -0.001215537 -0.025)
(0.006577848 0.0023941409 -0.025)
(0.0067199999 0.00196 -0.025)
(0.0068936539 0.001215537 -0.025)
(0.0053623109 0.0044995132 -0.025)
(0.0060621779 0.0035000001 -0.025)
(0.006292135 0.0030674159 -0.025)
(0.0035000001 0.0060621779 -0.025)
(0.0039857649 0.005754448 -0.025)
(0.0044995132 0.0053623109 -0.025)
(0.001215537 0.0068936539 -0.025)
(0.001723077 0.006784616 -0.025)
(0.0023941409 0.006577848 -0.025)
(-0.001723077 0.006784616 -0.025)
(-0.001215537 0.0068936539 -0.025)
(0 0.0070000002 -0.025)
(-0.0039857649 0.005754448 -0.025)
(-0.0035000001 0.0060621779 -0.025)
(-0.0023941409 0.006577848 -0.025)
(-0.0060621779 0.0035000001 -0.025)
(-0.0053623109 0.0044995132 -0.025)
(-0.0044995132 0.0053623109 -0.025)
(-0.0067199999 0.00196 -0.025)
(-0.006577848 0.0023941409 -0.025)
(-0.006292135 0.0030674159 -0.025)
(-0.0068936539 -0.001215537 -0.025)
(-0.0070000002 8.7952388e-19 -0.025)
(-0.0068936539 0.001215537 -0.025)
(-0.006292135 -0.0030674159 -0.025)
(-0.006577848 -0.0023941409 -0.025)
(-0.0067199999 -0.00196 -0.025)
(-0.0044995132 -0.0053623109 -0.025)
(-0.0053623109 -0.0044995132 -0.025)
(-0.0060621779 -0.0035000001 -0.025)
(-0.0023941409 -0.006577848 -0.025)
(-0.0035000001 -0.0060621779 -0.025)
(-0.0039857649 -0.005754448 -0.025)
(0 -0.0070000002 -0.025)
(-0.001215537 -0.0068936539 -0.025)
(-0.001723077 -0.006784616 -0.025)
(0.0023941409 -0.006577848 -0.025)
(0.001723077 -0.006784616 -0.025)
(0.001215537 -0.0068936539 -0.025)
(0.0044995132 -0.0053623109 -0.025)
(0.0039857649 -0.005754448 -0.025)
(0.0035000001 -0.0060621779 -0.025)
(0.006292135 -0.0030674159 -0.025)
(0.0060621779 -0.0035000001 -0.025)
(0.0053623109 -0.0044995132 -0.025)
(0.0067199999 -0.00196 -0.025)
(0.006577848 -0.0023941409 -0.025)
(-0.1240886 0.01506708 0)
(-0.125 0 0)
(-0.1240886 0.01506708 0.34999999)
(-0.1213677 0.029914459 0.34999999)
(-0.1213677 0.029914459 0)
(-0.116877 0.044325609 0.34999999)
(-0.116877 0.044325609 0)
(-0.110682 0.0580904 0.34999999)
(-0.110682 0.0580904 0)
(-0.102873 0.071008094 0.34999999)
(-0.102873 0.071008094 0)
(-0.093563847 0.082890332 0.34999999)
(-0.093563847 0.082890332 0)
(-0.082890332 0.093563847 0.34999999)
(-0.082890332 0.093563847 0)
(-0.071008094 0.102873 0.34999999)
(-0.071008094 0.102873 0)
(-0.0580904 0.110682 0.34999999)
(-0.0580904 0.110682 0)
(-0.044325609 0.116877 0.34999999)
(-0.044325609 0.116877 0)
(-0.029914459 0.1213677 0.34999999)
(-0.029914459 0.1213677 0)
(-0.01506708 0.1240886 0.34999999)
(-0.01506708 0.1240886 0)
(-7.6540428e-18 0.125 0.34999999)
(-7.6540428e-18 0.125 0)
(0.01506708 0.1240886 0.34999999)
(0.01506708 0.1240886 0)
(0.029914459 0.1213677 0.34999999)
(0.029914459 0.1213677 0)
(0.044325609 0.116877 0.34999999)
(0.044325609 0.116877 0)
(0.0580904 0.110682 0.34999999)
(0.0580904 0.110682 0)
(0.071008094 0.102873 0.34999999)
(0.071008094 0.102873 0)
(0.082890332 0.093563847 0.34999999)
(0.082890332 0.093563847 0)
(0.093563847 0.082890332 0.34999999)
(0.093563847 0.082890332 0)
(0.102873 0.071008094 0.34999999)
(0.102873 0.071008094 0)
(0.110682 0.0580904 0.34999999)
(0.110682 0.0580904 0)
(0.116877 0.044325609 0.34999999)
(0.116877 0.044325609 0)
(0.1213677 0.029914459 0.34999999)
(0.1213677 0.029914459 0)
(0.1240886 0.01506708 0.34999999)
(0.1240886 0.01506708 0)
(0.125 1.5308091e-17 0.34999999)
(0.125 4.592425e-17 0)
(0.1240886 -0.01506708 0.34999999)
(0.1240886 -0.01506708 0)
(0.1213677 -0.029914459 0.34999999)
(0.1213677 -0.029914459 0)
(0.116877 -0.044325609 0.34999999)
(0.116877 -0.044325609 0)
(0.110682 -0.0580904 0.34999999)
(0.110682 -0.0580904 0)
(0.102873 -0.071008094 0.34999999)
(0.102873 -0.071008094 0)
(0.093563847 -0.082890332 0.34999999)
(0.093563847 -0.082890332 0)
(0.082890332 -0.093563847 0.34999999)
(0.082890332 -0.093563847 0)
(0.071008094 -0.102873 0.34999999)
(0.071008094 -0.102873 0)
(0.0580904 -0.110682 0.34999999)
(0.0580904 -0.110682 0)
(0.044325609 -0.116877 0.34999999)
(0.044325609 -0.116877 0)
(0.029914459 -0.1213677 0.34999999)
(0.029914459 -0.1213677 0)
(0.01506708 -0.1240886 0.34999999)
(0.01506708 -0.1240886 0)
(2.296213e-17 -0.125 0.34999999)
(2.296213e-17 -0.125 0)
(-0.01506708 -0.1240886 0.34999999)
(-0.01506708 -0.1240886 0)
(-0.029914459 -0.1213677 0.34999999)
(-0.029914459 -0.1213677 0)
(-0.044325609 -0.116877 0.34999999)
(-0.044325609 -0.116877 0)
(-0.0580904 -0.110682 0.34999999)
(-0.0580904 -0.110682 0)
(-0.071008094 -0.102873 0.34999999)
(-0.071008094 -0.102873 0)
(-0.082890332 -0.093563847 0.34999999)
(-0.082890332 -0.093563847 0)
(-0.093563847 -0.082890332 0.34999999)
(-0.093563847 -0.082890332 0)
(-0.102873 -0.071008094 0.34999999)
(-0.102873 -0.071008094 0)
(-0.110682 -0.0580904 0.34999999)
(-0.110682 -0.0580904 0)
(-0.116877 -0.044325609 0.34999999)
(-0.116877 -0.044325609 0)
(-0.1213677 -0.029914459 0.34999999)
(-0.1213677 -0.029914459 0)
(-0.1240886 -0.01506708 0.34999999)
(-0.1240886 -0.01506708 0)
(-0.125 0 0.34999999)
)

// edges

228
(
(0 1)
(1 2)
(2 3)
(4 5)
(5 6)
(6 0)
(7 8)
(8 9)
(9 4)
(10 11)
(11 12)
(12 7)
(13 14)
(14 15)
(15 10)
(16 17)
(17 18)
(18 13)
(19 20)
(20 21)
(21 16)
(22 23)
(23 24)
(24 19)
(25 26)
(26 27)
(27 22)
(28 29)
(29 30)
(30 25)
(31 32)
(32 33)
(33 28)
(34 35)
(35 36)
(36 31)
(37 38)
(38 39)
(39 34)
(40 41)
(41 42)
(42 37)
(43 44)
(44 45)
(45 40)
(46 47)
(47 48)
(48 43)
(49 50)
(50 51)
(51 46)
(52 53)
(53 54)
(54 49)
(55 56)
(56 57)
(57 52)
(58 59)
(59 60)
(60 55)
(61 62)
(62 63)
(63 58)
(64 65)
(65 66)
(66 61)
(67 68)
(68 69)
(69 64)
(3 70)
(70 71)
(71 67)
(72 73)
(74 75)
(75 76)
(76 72)
(77 78)
(78 79)
(79 74)
(80 81)
(81 82)
(82 77)
(83 84)
(84 85)
(85 80)
(86 87)
(87 88)
(88 83)
(89 90)
(90 91)
(91 86)
(92 93)
(93 94)
(94 89)
(95 96)
(96 97)
(97 92)
(98 99)
(99 100)
(100 95)
(101 102)
(102 103)
(103 98)
(104 105)
(105 106)
(106 101)
(107 108)
(108 109)
(109 104)
(110 111)
(111 112)
(112 107)
(113 114)
(114 115)
(115 110)
(116 117)
(117 118)
(118 113)
(119 120)
(120 121)
(121 116)
(73 122)
(122 123)
(123 119)
(124 125)
(126 127)
(128 124)
(127 129)
(130 128)
(129 131)
(132 130)
(131 133)
(134 132)
(133 135)
(136 134)
(135 137)
(138 136)
(137 139)
(140 138)
(139 141)
(142 140)
(141 143)
(144 142)
(143 145)
(146 144)
(145 147)
(148 146)
(147 149)
(150 148)
(149 151)
(152 150)
(151 153)
(154 152)
(153 155)
(156 154)
(155 157)
(158 156)
(157 159)
(160 158)
(159 161)
(162 160)
(161 163)
(164 162)
(163 165)
(166 164)
(165 167)
(168 166)
(167 169)
(170 168)
(169 171)
(172 170)
(171 173)
(174 172)
(173 175)
(176 174)
(175 177)
(178 176)
(177 179)
(180 178)
(179 181)
(182 180)
(181 183)
(184 182)
(183 185)
(186 184)
(185 187)
(188 186)
(187 189)
(190 188)
(189 191)
(192 190)
(191 193)
(194 192)
(193 195)
(196 194)
(195 197)
(198 196)
(197 199)
(200 198)
(199 201)
(202 200)
(201 203)
(204 202)
(203 205)
(206 204)
(205 207)
(208 206)
(207 209)
(210 208)
(209 211)
(212 210)
(211 213)
(214 212)
(213 215)
(216 214)
(215 217)
(218 216)
(217 219)
(220 218)
(219 221)
(222 220)
(221 223)
(224 222)
(223 225)
(226 224)
(225 227)
(125 226)
(227 126)
)

// concaveStart mixedStart nonFeatureStart
0 0 0
// internalStart flatStart openStart multipleStart
228 228 228 228
// normals

456
(
(0 -0 1)
(0.99778508 -0.066519526 0.00029918206)
(0 0 1)
(0.99778508 0.066519526 0.00029915725)
(0 0 1)
(0.98819068 0.15322912 9.5058011e-05)
(0 -0 1)
(0.95035215 -0.31117643 -0.0001669765)
(0 0 1)
(0.97385684 -0.22716248 0.00024606298)
(0 0 1)
(0.98819061 -0.15322911 -0.00040374173)
(0 -0 1)
(0.86036672 -0.5096755 5.2733053e-05)
(0 0 1)
(0.90264807 -0.43037594 0.0017347358)
(0 0 1)
(0.93672498 -0.35006616 4.1066311e-05)
(0 -0 1)
(0.6899906 -0.72381791 0.00077496201)
(0 0 1)
(0.75044985 -0.66092739 0.00010940071)
(0 0 1)
(0.81267007 -0.58272196 0.0015725842)
(0 -0 1)
(0.48536343 -0.87431249 7.7684228e-05)
(0 0 1)
(0.53514984 -0.84475683 -0.00074314384)
(0 0 1)
(0.60673789 -0.79490194 0.00020847297)
(0 -0 1)
(0.21004322 -0.97769122 -0.0013147125)
(0 0 1)
(0.29445899 -0.95566409 0.00022617274)
(0 0 1)
(0.40731365 -0.91328786 0.00093430208)
(-0 0 1)
(-0.06237906 -0.99805249 0.00028072803)
(0 0 1)
(0.06237906 -0.99805249 0.00028071337)
(0 0 1)
(0.14912681 -0.98881807 0.00011357382)
(-0 0 1)
(-0.29445897 -0.95566403 -0.0004078737)
(0 0 1)
(-0.21004339 -0.97769205 0.00016791059)
(0 0 1)
(-0.14912681 -0.98881807 -0.0001078194)
(-0 0 1)
(-0.53514998 -0.84475705 0.00018583186)
(0 0 1)
(-0.43239432 -0.90168367 0.0013040534)
(0 0 1)
(-0.35216268 -0.93593881 5.10402e-05)
(-0 0 1)
(-0.71393535 -0.70020989 0.0015559537)
(0 0 1)
(-0.65018714 -0.7597741 4.6051834e-05)
(0 0 1)
(-0.60673787 -0.79490192 -0.00030573024)
(-0 0 1)
(-0.88299162 -0.46938872 0.00015872604)
(0 0 1)
(-0.83451141 -0.55099011 0.00077501217)
(0 0 1)
(-0.78331451 -0.62162558 0.00012447339)
(-0 0 1)
(-0.97385657 -0.22716242 0.00078519789)
(0 0 1)
(-0.95035215 -0.31117643 0.00014812486)
(0 0 1)
(-0.92054171 -0.39064386 0.00057427582)
(0 0 1)
(-0.99778508 0.066519526 0.00029918206)
(0 0 1)
(-0.99778508 -0.066519526 0.00029915725)
(0 0 1)
(-0.98819068 -0.15322912 9.5058011e-05)
(0 0 1)
(-0.95035215 0.31117643 -0.0001669765)
(0 0 1)
(-0.97385684 0.22716248 0.00024606298)
(0 0 1)
(-0.98819061 0.15322911 -0.00040374173)
(0 0 1)
(-0.86036672 0.5096755 5.2733053e-05)
(0 0 1)
(-0.90264807 0.43037594 0.0017347358)
(0 0 1)
(-0.93672498 0.35006616 4.1066311e-05)
(0 0 1)
(-0.6899906 0.72381791 0.00077496201)
(0 0 1)
(-0.75044985 0.66092739 0.00010940071)
(0 0 1)
(-0.81267007 0.58272196 0.0015725842)
(0 0 1)
(-0.48536343 0.87431249 7.7684228e-05)
(0 0 1)
(-0.53514984 0.84475683 -0.00074314384)
(0 0 1)
(-0.60673789 0.79490194 0.00020847297)
(0 0 1)
(-0.21004322 0.97769122 -0.0013147125)
(0 0 1)
(-0.29445899 0.95566409 0.00022617274)
(0 0 1)
(-0.40731365 0.91328786 0.00093430208)
(0 0 1)
(0.06237906 0.99805249 0.00028072803)
(0 -0 1)
(-0.06237906 0.99805249 0.00028071337)
(0 0 1)
(-0.14912681 0.98881807 0.00011357382)
(0 0 1)
(0.29445897 0.95566403 -0.0004078737)
(0 0 1)
(0.21004339 0.97769205 0.00016791059)
(0 0 1)
(0.14912681 0.98881807 -0.0001078194)
(0 0 1)
(0.53514998 0.84475705 0.00018583186)
(0 0 1)
(0.43239432 0.90168367 0.0013040534)
(0 0 1)
(0.35216268 0.93593881 5.10402e-05)
(0 0 1)
(0.71393535 0.70020989 0.0015559537)
(0 0 1)
(0.65018714 0.7597741 4.6051834e-05)
(0 0 1)
(0.60673787 0.79490192 -0.00030573024)
(0 0 1)
(0.88299162 0.46938872 0.00015872604)
(0 0 1)
(0.83451141 0.55099011 0.00077501217)
(0 0 1)
(0.78331451 0.62162558 0.00012447339)
(0 0 1)
(0.97385657 0.22716242 0.00078519789)
(0 0 1)
(0.95035215 0.31117643 0.00014812486)
(0 0 1)
(0.92054171 0.39064386 0.00057427582)
(-0 0 -1)
(0.99619465 -0.08715625 3.9859999e-09)
(0 -0 -1)
(0.95035214 0.31117642 0.00021987954)
(0 0 -1)
(0.97385687 0.22716249 3.0907259e-08)
(0 0 -1)
(0.99619429 0.087156218 -0.00085663658)
(0 -0 -1)
(0.81915145 0.57357638 -0.0010181863)
(0 0 -1)
(0.88299159 0.4693887 0.00032219057)
(0 0 -1)
(0.92054186 0.39064393 -2.0211972e-08)
(0 -0 -1)
(0.53514989 0.84475691 0.00060571693)
(0 0 -1)
(0.6067379 0.79490196 -7.788508e-09)
(0 0 -1)
(0.7071067 0.7071067 -0.0004678885)
(0 -0 -1)
(0.2100433 0.97769162 0.00095684744)
(0 0 -1)
(0.294459 0.95566411 1.3711815e-08)
(0 0 -1)
(0.42261783 0.90630784 -0.00051397108)
(0 0 -1)
(-0.2100434 0.97769206 3.1774601e-08)
(0 0 -1)
(-0.087156209 0.99619419 -0.00096430952)
(0 0 -1)
(0.08715625 0.99619465 3.9859999e-09)
(0 0 -1)
(-0.53514999 0.84475706 -2.2150989e-08)
(0 0 -1)
(-0.42261777 0.90630771 -0.00073663067)
(0 0 -1)
(-0.29445897 0.95566403 0.00041015837)
(0 0 -1)
(-0.81915176 0.57357659 -0.00052992856)
(0 0 -1)
(-0.70710647 0.70710647 -0.00094214261)
(0 0 -1)
(-0.60673787 0.79490191 0.00033726319)
(0 0 -1)
(-0.95035216 0.31117643 1.288025e-08)
(0 0 -1)
(-0.92054184 0.39064392 -0.00023309117)
(0 0 -1)
(-0.88299163 0.46938873 1.9428992e-08)
(0 0 -1)
(-0.99619429 -0.087156218 -0.00085663658)
(0 0 -1)
(-0.99619465 0.08715625 3.9859999e-09)
(0 0 -1)
(-0.97385641 0.22716239 0.00096916581)
(0 0 -1)
(-0.92054186 -0.39064393 -2.0211972e-08)
(0 0 -1)
(-0.95035214 -0.31117642 0.00021987954)
(0 0 -1)
(-0.97385687 -0.22716249 3.0907259e-08)
(0 0 -1)
(-0.7071067 -0.7071067 -0.0004678885)
(0 0 -1)
(-0.81915145 -0.57357638 -0.0010181863)
(0 0 -1)
(-0.88299159 -0.4693887 0.00032219057)
(0 0 -1)
(-0.42261783 -0.90630784 -0.00051397108)
(0 0 -1)
(-0.53514989 -0.84475691 0.00060571693)
(0 0 -1)
(-0.6067379 -0.79490196 -7.788508e-09)
(0 0 -1)
(-0.08715625 -0.99619465 3.9859999e-09)
(0 0 -1)
(-0.2100433 -0.97769162 0.00095684744)
(0 0 -1)
(-0.294459 -0.95566411 1.3711815e-08)
(-0 0 -1)
(0.29445897 -0.95566403 0.00041015837)
(0 0 -1)
(0.2100434 -0.97769206 3.1774601e-08)
(0 -0 -1)
(0.087156209 -0.99619419 -0.00096430952)
(-0 0 -1)
(0.60673787 -0.79490191 0.00033726319)
(0 0 -1)
(0.53514999 -0.84475706 -2.2150989e-08)
(0 0 -1)
(0.42261777 -0.90630771 -0.00073663067)
(-0 0 -1)
(0.88299163 -0.46938873 1.9428992e-08)
(0 0 -1)
(0.81915176 -0.57357659 -0.00052992856)
(0 0 -1)
(0.70710647 -0.70710647 -0.00094214261)
(-0 0 -1)
(0.97385641 -0.22716239 0.00096916581)
(0 0 -1)
(0.95035216 -0.31117643 1.288025e-08)
(0 0 -1)
(0.92054184 -0.39064392 -0.00023309117)
(-0.99817552 0.06037911 0)
(0 0 -1)
(-0.98361971 0.18025611 0)
(0 0 1)
(-0.98361971 0.18025611 0)
(0 0 -1)
(-0.95472072 0.29750351 0)
(0 0 1)
(-0.95472072 0.29750351 0)
(0 0 -1)
(-0.91190073 0.41041083 0)
(0 0 1)
(-0.91190073 0.41041083 0)
(0 0 -1)
(-0.85578164 0.51733721 0)
(0 0 1)
(-0.85578164 0.51733721 0)
(0 0 -1)
(-0.78718312 0.61671933 0)
(0 0 1)
(-0.78718312 0.61671933 0)
(0 0 -1)
(-0.70710678 0.70710678 0)
(0 0 1)
(-0.70710678 0.70710678 0)
(0 0 -1)
(-0.61671933 0.78718312 0)
(0 0 1)
(-0.61671933 0.78718312 0)
(0 0 -1)
(-0.51733721 0.85578164 0)
(0 0 1)
(-0.51733721 0.85578164 0)
(0 0 -1)
(-0.41041083 0.91190073 0)
(0 0 1)
(-0.41041083 0.91190073 0)
(0 0 -1)
(-0.29750351 0.95472072 0)
(0 0 1)
(-0.29750351 0.95472072 0)
(0 0 -1)
(-0.18025611 0.98361971 0)
(0 0 1)
(-0.18025611 0.98361971 0)
(0 0 -1)
(-0.06037911 0.99817552 0)
(0 0 1)
(-0.06037911 0.99817552 0)
(0 0 -1)
(0.06037911 0.99817552 -0)
(0 -0 1)
(0.06037911 0.99817552 0)
(0 0 -1)
(0.18025611 0.98361971 -0)
(0 0 1)
(0.18025611 0.98361971 0)
(0 -0 -1)
(0.29750351 0.95472072 -0)
(0 0 1)
(0.29750351 0.95472072 0)
(0 0 -1)
(0.41041083 0.91190073 -0)
(0 0 1)
(0.41041083 0.91190073 0)
(0 0 -1)
(0.51733721 0.85578164 -0)
(0 0 1)
(0.51733721 0.85578164 0)
(0 -0 -1)
(0.61671933 0.78718312 -0)
(0 0 1)
(0.61671933 0.78718312 0)
(0 0 -1)
(0.70710678 0.70710678 -0)
(0 0 1)
(0.70710678 0.70710678 0)
(0 0 -1)
(0.78718312 0.61671933 -0)
(0 0 1)
(0.78718312 0.61671933 0)
(0 -0 -1)
(0.85578164 0.51733721 -0)
(0 0 1)
(0.85578164 0.51733721 0)
(0 0 -1)
(0.91190073 0.41041083 -0)
(0 0 1)
(0.91190073 0.41041083 0)
(0 0 -1)
(0.95472072 0.29750351 -0)
(0 0 1)
(0.95472072 0.29750351 0)
(0 -0 -1)
(0.98361971 0.18025611 -0)
(0 0 1)
(0.98361971 0.18025611 0)
(0 0 -1)
(0.99817552 0.06037911 -0)
(0 0 1)
(0.99817552 0.06037911 5.1305044e-18)
(0 0 -1)
(0.99817552 -0.06037911 -5.2816472e-18)
(-0 0 1)
(0.99817552 -0.06037911 0)
(0 0 -1)
(0.98361971 -0.18025611 0)
(0 0 1)
(0.98361971 -0.18025611 0)
(-0 0 -1)
(0.95472072 -0.29750351 0)
(0 -0 1)
(0.95472072 -0.29750351 0)
(0 0 -1)
(0.91190073 -0.41041083 0)
(0 0 1)
(0.91190073 -0.41041083 0)
(0 0 -1)
(0.85578164 -0.51733721 0)
(0 0 1)
(0.85578164 -0.51733721 0)
(-0 0 -1)
(0.78718312 -0.61671933 0)
(0 -0 1)
(0.78718312 -0.61671933 0)
(0 0 -1)
(0.70710678 -0.70710678 0)
(0 0 1)
(0.70710678 -0.70710678 0)
(0 0 -1)
(0.61671933 -0.78718312 0)
(0 0 1)
(0.61671933 -0.78718312 0)
(-0 0 -1)
(0.51733721 -0.85578164 0)
(0 -0 1)
(0.51733721 -0.85578164 0)
(0 0 -1)
(0.41041083 -0.91190073 0)
(0 0 1)
(0.41041083 -0.91190073 0)
(0 0 -1)
(0.29750351 -0.95472072 0)
(0 0 1)
(0.29750351 -0.95472072 0)
(-0 0 -1)
(0.18025611 -0.98361971 0)
(0 -0 1)
(0.18025611 -0.98361971 0)
(0 0 -1)
(0.06037911 -0.99817552 0)
(0 0 1)
(0.06037911 -0.99817552 0)
(0 0 -1)
(-0.06037911 -0.99817552 0)
(0 0 1)
(-0.06037911 -0.99817552 0)
(0 0 -1)
(-0.18025611 -0.98361971 0)
(-0 0 1)
(-0.18025611 -0.98361971 0)
(0 0 -1)
(-0.29750351 -0.95472072 0)
(0 0 1)
(-0.29750351 -0.95472072 0)
(0 0 -1)
(-0.41041083 -0.91190073 0)
(0 0 1)
(-0.41041083 -0.91190073 0)
(0 0 -1)
(-0.51733721 -0.85578164 0)
(-0 0 1)
(-0.51733721 -0.85578164 0)
(0 0 -1)
(-0.61671933 -0.78718312 0)
(0 0 1)
(-0.61671933 -0.78718312 0)
(0 0 -1)
(-0.70710678 -0.70710678 0)
(0 0 1)
(-0.70710678 -0.70710678 0)
(0 0 -1)
(-0.78718312 -0.61671933 0)
(-0 0 1)
(-0.78718312 -0.61671933 0)
(0 0 -1)
(-0.85578164 -0.51733721 0)
(0 0 1)
(-0.85578164 -0.51733721 0)
(0 0 -1)
(-0.91190073 -0.41041083 0)
(0 0 1)
(-0.91190073 -0.41041083 0)
(0 0 -1)
(-0.95472072 -0.29750351 0)
(-0 0 1)
(-0.95472072 -0.29750351 0)
(0 0 -1)
(-0.98361971 -0.18025611 0)
(0 0 1)
(-0.98361971 -0.18025611 0)
(0 0 -1)
(-0.99817552 -0.06037911 0)
(0 0 1)
(-0.99817552 -0.06037911 0)
(0 0 -1)
(-0.99817552 0.06037911 0)
(0 0 1)
)

// normal volume types

456
(
0
0
0
0
0
0
0
0
0
0
0
0
0
0
0
0
0
0
0
0
0
0
0
0
0
0
0
0
0
0
0
0
0
0
0
0
0
0
0
0
0
0
0
0
0
0
0
0
0
0
0
0
0
0
0
0
0
0
0
0
0
0
0
0
0
0
0
0
0
0
0
0
0
0
0
0
0
0
0
0
0
0
0
0
0
0
0
0
0
0
0
0
0
0
0
0
0
0
0
0
0
0
0
0
0
0
0
0
0
0
0
0
0
0
0
0
0
0
0
0
0
0
0
0
0
0
0
0
0
0
0
0
0
0
0
0
0
0
0
0
0
0
0
0
0
0
0
0
0
0
0
0
0
0
0
0
0
0
0
0
0
0
0
0
0
0
0
0
0
0
0
0
0
0
0
0
0
0
0
0
0
0
0
0
0
0
0
0
0
0
0
0
0
0
0
0
0
0
0
0
0
0
0
0
0
0
0
0
0
0
0
0
0
0
0
0
0
0
0
0
0
0
0
0
0
0
0
0
0
0
0
0
0
0
0
0
0
0
0
0
0
0
0
0
0
0
0
0
0
0
0
0
0
0
0
0
0
0
0
0
0
0
0
0
0
0
0
0
0
0
0
0
0
0
0
0
0
0
0
0
0
0
0
0
0
0
0
0
0
0
0
0
0
0
0
0
0
0
0
0
0
0
0
0
0
0
0
0
0
0
0
0
0
0
0
0
0
0
0
0
0
0
0
0
0
0
0
0
0
0
0
0
0
0
0
0
0
0
0
0
0
0
0
0
0
0
0
0
0
0
0
0
0
0
0
0
0
0
0
0
0
0
0
0
0
0
0
0
0
0
0
0
0
0
0
0
0
0
0
0
0
0
0
0
0
0
0
0
0
0
0
0
0
0
0
0
0
0
0
0
0
0
0
0
0
0
0
0
0
0
0
0
0
0
0
0
0
0
0
0
0
0
0
0
0
0
0
0
0
0
0
0
0
0
0
0
0
0
0
0
0
0
0
0
0
0
0
0
0
0
0
0
0
0
0
0
)

// normalDirections

228
(
2(1 -1)
2(1 -1)
2(1 -1)
2(1 -1)
2(1 -1)
2(1 -1)
2(1 -1)
2(1 -1)
2(1 -1)
2(1 -1)
2(1 -1)
2(1 -1)
2(1 -1)
2(1 -1)
2(1 -1)
2(1 -1)
2(1 -1)
2(1 -1)
2(1 -1)
2(1 -1)
2(1 -1)
2(1 -1)
2(1 -1)
2(1 -1)
2(1 -1)
2(1 -1)
2(1 -1)
2(1 -1)
2(1 -1)
2(1 -1)
2(1 -1)
2(1 -1)
2(1 -1)
2(1 -1)
2(1 -1)
2(1 -1)
2(1 -1)
2(1 -1)
2(1 -1)
2(1 -1)
2(1 -1)
2(1 -1)
2(1 -1)
2(1 -1)
2(1 -1)
2(1 -1)
2(1 -1)
2(1 -1)
2(1 -1)
2(1 -1)
2(1 -1)
2(1 -1)
2(1 -1)
2(1 -1)
2(1 -1)
2(1 -1)
2(1 -1)
2(1 -1)
2(1 -1)
2(1 -1)
2(1 -1)
2(1 -1)
2(1 -1)
2(1 -1)
2(1 -1)
2(1 -1)
2(1 -1)
2(1 -1)
2(1 -1)
2(1 -1)
2(1 -1)
2(1 -1)
2(1 -1)
2(1 -1)
2(1 -1)
2(1 -1)
2(1 -1)
2(1 -1)
2(1 -1)
2(1 -1)
2(1 -1)
2(1 -1)
2(1 -1)
2(1 -1)
2(1 -1)
2(1 -1)
2(1 -1)
2(1 -1)
2(1 -1)
2(1 -1)
2(1 -1)
2(1 -1)
2(1 -1)
2(1 -1)
2(1 -1)
2(1 -1)
2(1 -1)
2(1 -1)
2(1 -1)
2(1 -1)
2(1 -1)
2(1 -1)
2(1 -1)
2(1 -1)
2(1 -1)
2(1 -1)
2(1 -1)
2(1 -1)
2(1 -1)
2(1 -1)
2(1 -1)
2(1 -1)
2(1 -1)
2(1 -1)
2(1 -1)
2(1 -1)
2(1 -1)
2(1 -1)
2(1 -1)
2(1 -1)
2(1 -1)
2(1 -1)
2(1 -1)
2(1 -1)
2(1 -1)
2(1 -1)
2(1 -1)
2(1 -1)
2(1 -1)
2(1 -1)
2(1 -1)
2(1 -1)
2(1 -1)
2(1 -1)
2(1 -1)
2(1 -1)
2(1 -1)
2(1 -1)
2(1 -1)
2(1 -1)
2(1 -1)
2(1 -1)
2(1 -1)
2(1 -1)
2(1 -1)
2(1 -1)
2(1 -1)
2(1 -1)
2(1 -1)
2(1 -1)
2(1 -1)
2(1 -1)
2(1 -1)
2(1 -1)
2(1 -1)
2(1 -1)
2(1 -1)
2(1 -1)
2(1 -1)
2(1 -1)
2(1 -1)
2(1 -1)
2(1 -1)
2(1 -1)
2(1 -1)
2(1 -1)
2(1 -1)
2(1 -1)
2(1 -1)
2(1 -1)
2(1 -1)
2(1 -1)
2(1 -1)
2(1 -1)
2(1 -1)
2(1 -1)
2(1 -1)
2(1 -1)
2(1 -1)
2(1 -1)
2(1 -1)
2(1 -1)
2(1 -1)
2(1 -1)
2(1 -1)
2(1 -1)
2(1 -1)
2(1 -1)
2(1 -1)
2(1 -1)
2(1 -1)
2(1 -1)
2(1 -1)
2(1 -1)
2(1 -1)
2(1 -1)
2(1 -1)
2(1 -1)
2(1 -1)
2(1 -1)
2(1 -1)
2(1 -1)
2(1 -1)
2(1 -1)
2(1 -1)
2(1 -1)
2(1 -1)
2(1 -1)
2(1 -1)
2(1 -1)
2(1 -1)
2(1 -1)
2(1 -1)
2(1 -1)
2(1 -1)
2(1 -1)
2(1 -1)
2(1 -1)
2(1 -1)
2(1 -1)
2(1 -1)
2(1 -1)
2(1 -1)
2(1 -1)
2(1 -1)
2(1 -1)
2(1 -1)
2(1 -1)
)

// edgeNormals

228
(
2(0 1)
2(2 3)
2(4 5)
2(6 7)
2(8 9)
2(10 11)
2(12 13)
2(14 15)
2(16 17)
2(18 19)
2(20 21)
2(22 23)
2(24 25)
2(26 27)
2(28 29)
2(30 31)
2(32 33)
2(34 35)
2(36 37)
2(38 39)
2(40 41)
2(42 43)
2(44 45)
2(46 47)
2(48 49)
2(50 51)
2(52 53)
2(54 55)
2(56 57)
2(58 59)
2(60 61)
2(62 63)
2(64 65)
2(66 67)
2(68 69)
2(70 71)
2(72 73)
2(74 75)
2(76 77)
2(78 79)
2(80 81)
2(82 83)
2(84 85)
2(86 87)
2(88 89)
2(90 91)
2(92 93)
2(94 95)
2(96 97)
2(98 99)
2(100 101)
2(102 103)
2(104 105)
2(106 107)
2(108 109)
2(110 111)
2(112 113)
2(114 115)
2(116 117)
2(118 119)
2(120 121)
2(122 123)
2(124 125)
2(126 127)
2(128 129)
2(130 131)
2(132 133)
2(134 135)
2(136 137)
2(138 139)
2(140 141)
2(142 143)
2(144 145)
2(146 147)
2(148 149)
2(150 151)
2(152 153)
2(154 155)
2(156 157)
2(158 159)
2(160 161)
2(162 163)
2(164 165)
2(166 167)
2(168 169)
2(170 171)
2(172 173)
2(174 175)
2(176 177)
2(178 179)
2(180 181)
2(182 183)
2(184 185)
2(186 187)
2(188 189)
2(190 191)
2(192 193)
2(194 195)
2(196 197)
2(198 199)
2(200 201)
2(202 203)
2(204 205)
2(206 207)
2(208 209)
2(210 211)
2(212 213)
2(214 215)
2(216 217)
2(218 219)
2(220 221)
2(222 223)
2(224 225)
2(226 227)
2(228 229)
2(230 231)
2(232 233)
2(234 235)
2(236 237)
2(238 239)
2(240 241)
2(242 243)
2(244 245)
2(246 247)
2(248 249)
2(250 251)
2(252 253)
2(254 255)
2(256 257)
2(258 259)
2(260 261)
2(262 263)
2(264 265)
2(266 267)
2(268 269)
2(270 271)
2(272 273)
2(274 275)
2(276 277)
2(278 279)
2(280 281)
2(282 283)
2(284 285)
2(286 287)
2(288 289)
2(290 291)
2(292 293)
2(294 295)
2(296 297)
2(298 299)
2(300 301)
2(302 303)
2(304 305)
2(306 307)
2(308 309)
2(310 311)
2(312 313)
2(314 315)
2(316 317)
2(318 319)
2(320 321)
2(322 323)
2(324 325)
2(326 327)
2(328 329)
2(330 331)
2(332 333)
2(334 335)
2(336 337)
2(338 339)
2(340 341)
2(342 343)
2(344 345)
2(346 347)
2(348 349)
2(350 351)
2(352 353)
2(354 355)
2(356 357)
2(358 359)
2(360 361)
2(362 363)
2(364 365)
2(366 367)
2(368 369)
2(370 371)
2(372 373)
2(374 375)
2(376 377)
2(378 379)
2(380 381)
2(382 383)
2(384 385)
2(386 387)
2(388 389)
2(390 391)
2(392 393)
2(394 395)
2(396 397)
2(398 399)
2(400 401)
2(402 403)
2(404 405)
2(406 407)
2(408 409)
2(410 411)
2(412 413)
2(414 415)
2(416 417)
2(418 419)
2(420 421)
2(422 423)
2(424 425)
2(426 427)
2(428 429)
2(430 431)
2(432 433)
2(434 435)
2(436 437)
2(438 439)
2(440 441)
2(442 443)
2(444 445)
2(446 447)
2(448 449)
2(450 451)
2(452 453)
2(454 455)
)

// featurePointNormals
0()
// featurePointEdges
0()
// regionEdges
0()


// ************************************************************************* //
