/*--------------------------------*- C++ -*----------------------------------*\
| =========                 |                                                 |
| \\      /  F ield         | OpenFOAM: The Open Source CFD Toolbox           |
|  \\    /   O peration     | Version:  2306                                  |
|   \\  /    A nd           | Website:  www.openfoam.com                      |
|    \\/     M anipulation  |                                                 |
\*---------------------------------------------------------------------------*/
FoamFile
{
    version     2.0;
    format      ascii;
    arch        "LSB;label=32;scalar=64";
    class       extendedFeatureEdgeMesh;
    location    "constant/extendedFeatureEdgeMesh";
    object      ehX_CFD.extendedFeatureEdgeMesh;
}
// * * * * * * * * * * * * * * * * * * * * * * * * * * * * * * * * * * * * * //

// points

523
(
(-0.0295963 0.0320303 2)
(-0.0320303 0.0295963 2)
(-0.0353553 0.0420053 2)
(-0.0295963 0.0386803 2)
(-0.0386803 0.0295963 2)
(-0.0420053 0.0353553 2)
(-0.0411144 0.0386803 2)
(-0.053325 0.00575907 2)
(-0.05665 9.27605e-15 2)
(-0.0442409 0.003325 2)
(-0.0442409 -0.003325 2)
(-0.053325 -0.00575907 2)
(-0.0420053 -0.0353553 2)
(-0.0386803 -0.0295963 2)
(-0.0295963 -0.0320303 2)
(-0.0320303 -0.0295963 2)
(-0.0295963 -0.0386803 2)
(-0.0353553 -0.0420053 2)
(-1.76618e-15 -0.05665 2)
(-0.00575907 -0.053325 2)
(-0.003325 -0.0442409 2)
(0.003325 -0.0442409 2)
(0.00575907 -0.053325 2)
(0.0353553 -0.0420053 2)
(0.0295963 -0.0386803 2)
(0.0295963 -0.0320303 2)
(0.0320303 -0.0295963 2)
(0.0386803 -0.0295963 2)
(0.0420053 -0.0353553 2)
(0.0442409 0.003325 2)
(0.053325 0.00575907 2)
(0.05665 -3.09609e-15 2)
(0.053325 -0.00575907 2)
(0.0442409 -0.003325 2)
(0.0295963 0.0320303 2)
(0.0295963 0.0386803 2)
(0.0353553 0.0420053 2)
(0.0420053 0.0353553 2)
(0.0386803 0.0295963 2)
(0.0320303 0.0295963 2)
(-0.003325 0.0442409 2)
(-0.00575907 0.053325 2)
(4.43176e-15 0.05665 2)
(0.00575907 0.053325 2)
(0.003325 0.0442409 2)
(-0.00551452 -0.0462835 0.205721)
(0.0817048 -0.0201384 0)
(0.0825401 -0.0163816 0.20196)
(0.0817048 0.0201384 2.2)
(0.0825165 0.0165 1.99999)
(0.0827999 0.0150134 1.99316)
(0.0830638 -0.0134771 0.209516)
(-0.0296123 0.0320028 0.20181)
(-0.00408204 -0.0440522 0.203325)
(0.028128 -0.0372474 0.205759)
(0.0301317 -0.0399009 0.20665)
(0.0319724 0.0296301 0.201774)
(0.0301317 0.0399009 0.20665)
(0.028128 0.0372474 0.205759)
(0.0297147 0.0388776 0.206564)
(0.08415 1.03054e-17 0)
(0.0817048 0.0201384 0)
(0.08415 3.09162e-17 2.2)
(0.0817048 -0.0201384 2.2)
(0.0629872 -0.0558018 2.2)
(0.0629872 -0.0558018 0)
(0.02984 -0.0786816 2.2)
(0.02984 -0.0786816 0)
(-0.0101432 -0.0835365 2.2)
(-0.0101432 -0.0835365 0)
(-0.0478026 -0.0692541 2.2)
(-0.0478026 -0.0692541 0)
(-0.0745111 -0.0391065 2.2)
(-0.0745111 -0.0391065 0)
(-0.08415 0 2.2)
(-0.08415 0 0)
(-0.0745111 0.0391065 2.2)
(-0.0745111 0.0391065 0)
(-0.0478026 0.0692541 2.2)
(-0.0478026 0.0692541 0)
(-0.0101432 0.0835365 2.2)
(-0.0101432 0.0835365 0)
(0.02984 0.0786816 2.2)
(0.02984 0.0786816 0)
(0.0629872 0.0558018 2.2)
(0.0629872 0.0558018 0)
(0.182517 0.0165 0.199988)
(0.18287 0.0146196 0.20765)
(0.183624 0.00939176 0.213564)
(0.184013 -0.00480759 0.184216)
(0.184098 0.00293054 0.183765)
(0.1828 0.0150134 0.193155)
(0.183535 0.0101503 0.186993)
(0.184121 0.0021707 0.216356)
(0.18415 -3.25261e-19 0.2165)
(0.183814 -0.00751018 0.214692)
(0.18271 -0.0155032 0.194352)
(0.183337 -0.01167 0.188335)
(0.182541 -0.0163816 0.20196)
(0.183064 -0.0134771 0.209516)
(0.182517 0.0165 1.99999)
(0.18287 0.0146196 2.00765)
(0.183624 0.00939176 2.01356)
(0.184013 -0.00480759 1.98422)
(0.184098 0.00293054 1.98377)
(0.1828 0.0150134 1.99316)
(0.183535 0.0101503 1.98699)
(0.184121 0.0021707 2.01636)
(0.18415 -6.50521e-19 2.0165)
(0.183814 -0.00751018 2.01469)
(0.18271 -0.0155032 1.99435)
(0.183337 -0.01167 1.98834)
(0.182541 -0.0163816 2.00196)
(0.183064 -0.0134771 2.00952)
(0.05665 -3.50954e-15 0.2)
(0.0556854 0.0104094 0.2)
(-0.0344932 -0.0314447 0.194241)
(-0.0435231 -0.016861 0.194241)
(-0.0369505 -0.0336848 0.19335)
(-0.0466236 -0.0180621 0.19335)
(-0.0394076 -0.0359248 0.194241)
(-0.0497241 -0.0192632 0.194241)
(0.0121071 -0.0425521 0.196675)
(-0.00408204 -0.0440522 0.196675)
(0.0127732 -0.0448932 0.194241)
(-0.00430663 -0.0464759 0.194241)
(0.0136831 -0.0480913 0.19335)
(-0.00461342 -0.0497867 0.19335)
(0.0145931 -0.0512893 0.194241)
(-0.00492021 -0.0530975 0.194241)
(0.0376144 -0.0232898 0.196675)
(0.0266611 -0.035305 0.196675)
(0.0396839 -0.0245712 0.194241)
(0.028128 -0.0372474 0.194241)
(0.0425109 -0.0263216 0.19335)
(0.0301317 -0.0399009 0.19335)
(0.0453378 -0.028072 0.194241)
(0.0321355 -0.0425543 0.194241)
(0.0434876 0.00812925 0.196675)
(0.0434876 -0.00812925 0.196675)
(0.0458803 0.00857651 0.194241)
(0.0458803 -0.00857651 0.194241)
(0.0491487 0.00918748 0.19335)
(0.0491487 -0.00918748 0.19335)
(0.052417 0.00979844 0.194241)
(0.052417 -0.00979844 0.194241)
(-0.053325 0 0.194241)
(-0.05 0 0.19335)
(-0.046675 0 0.194241)
(-0.0197199 -0.0396029 0.196675)
(-0.0326944 -0.0298049 0.196675)
(-0.0208048 -0.0417817 0.194241)
(-0.0222869 -0.0447582 0.19335)
(-0.023769 -0.0477346 0.194241)
(0.0453378 0.028072 0.194241)
(0.0321355 0.0425543 0.194241)
(0.0425109 0.0263216 0.19335)
(0.0301317 0.0399009 0.19335)
(0.0396839 0.0245712 0.194241)
(0.028128 0.0372474 0.194241)
(0.0145931 0.0512893 0.194241)
(-0.00492021 0.0530975 0.194241)
(0.0136831 0.0480913 0.19335)
(-0.00461342 0.0497867 0.19335)
(0.0127732 0.0448932 0.194241)
(-0.00430663 0.0464759 0.194241)
(-0.023769 0.0477346 0.194241)
(-0.0394076 0.0359248 0.194241)
(-0.0222869 0.0447582 0.19335)
(-0.0369505 0.0336848 0.19335)
(-0.0208048 0.0417817 0.194241)
(-0.0344932 0.0314447 0.194241)
(-0.0435231 0.016861 0.194241)
(-0.0466236 0.0180621 0.19335)
(-0.0497241 0.0192632 0.194241)
(-0.0197199 -0.0396029 0.203325)
(0.0321355 -0.0425543 0.205759)
(0.0145931 -0.0512893 0.205759)
(0.0136831 -0.0480913 0.20665)
(0.0127732 -0.0448932 0.205759)
(0.052417 -0.00979844 0.205759)
(0.0453378 -0.028072 0.205759)
(0.0491487 -0.00918748 0.20665)
(0.0425109 -0.0263216 0.20665)
(0.0458803 -0.00857651 0.205759)
(0.0396839 -0.0245712 0.205759)
(0.0453378 0.028072 0.205759)
(0.052417 0.00979844 0.205759)
(0.0425109 0.0263216 0.20665)
(0.0491487 0.00918748 0.20665)
(0.0396839 0.0245712 0.205759)
(0.0458803 0.00857651 0.205759)
(0.0145931 0.0512893 0.205759)
(0.0321355 0.0425543 0.205759)
(0.0136831 0.0480913 0.20665)
(0.0127732 0.0448932 0.205759)
(-0.0386803 0.0411144 2)
(-0.0320303 0.0411144 2)
(-0.0287053 0.0353553 2)
(-0.0353553 0.0287053 2)
(-0.0411144 0.0320303 2)
(-0.0411064 0.0386942 0.201605)
(-0.0557591 0.003325 2)
(-0.05 0.00665 2)
(-0.046675 0.00575907 2)
(-0.04335 9.27065e-15 2)
(-0.046675 -0.00575907 2)
(-0.05 -0.00665 2)
(-0.0557591 -0.003325 2)
(-0.0386803 -0.0411144 2)
(-0.0411144 -0.0386803 2)
(-0.0411144 -0.0320303 2)
(-0.0353553 -0.0287053 2)
(-0.0287053 -0.0353553 2)
(-0.0319724 -0.0296301 0.201774)
(-0.0320303 -0.0411144 2)
(-0.003325 -0.0557591 2)
(-0.00665 -0.05 2)
(-0.00575907 -0.046675 2)
(-1.75717e-15 -0.04335 2)
(0.00575907 -0.046675 2)
(0.00665 -0.05 2)
(0.003325 -0.0557591 2)
(0.0411144 -0.0386803 2)
(0.0386803 -0.0411144 2)
(0.0320303 -0.0411144 2)
(0.0296301 -0.0319724 0.201774)
(0.0287053 -0.0353553 2)
(0.0353553 -0.0287053 2)
(0.0411144 -0.0320303 2)
(0.04335 -3.09069e-15 2)
(0.046675 0.00575907 2)
(0.05 0.00665 2)
(0.0557591 0.003325 2)
(0.0557591 -0.003325 2)
(0.05 -0.00665 2)
(0.046675 -0.00575907 2)
(0.0287053 0.0353553 2)
(0.0320303 0.0411144 2)
(0.0386803 0.0411144 2)
(0.0411144 0.0386803 2)
(0.0411144 0.0320303 2)
(0.0353553 0.0287053 2)
(4.42274e-15 0.04335 2)
(-0.00575907 0.046675 2)
(-0.00665 0.05 2)
(-0.003325 0.0557591 2)
(0.003325 0.0557591 2)
(0.00665 0.05 2)
(0.00575907 0.046675 2)
(0.0825401 -0.0163816 2.00196)
(0.0830638 -0.0134771 2.00952)
(0.08415 -6.65896e-06 0.1835)
(0.0840126 -0.00480759 0.184216)
(0.084099 0.00293054 0.183765)
(0.0835356 0.0101503 0.186993)
(0.0827999 0.0150134 0.193155)
(0.0833369 -0.01167 0.188335)
(0.0827096 -0.0155032 0.194352)
(0.0835356 0.0101503 1.98699)
(0.084099 0.00293054 1.98377)
(0.08415 -6.65896e-06 1.9835)
(0.0840126 -0.00480759 1.98422)
(0.0833369 -0.01167 1.98834)
(0.0827096 -0.0155032 1.99435)
(0.0828703 0.0146196 0.20765)
(0.0825165 0.0165 0.199988)
(0.0838142 -0.00751018 2.01469)
(0.08415 -6.50521e-19 2.0165)
(0.084122 0.0021707 2.01636)
(0.0836243 0.00939176 2.01356)
(0.0828703 0.0146196 2.00765)
(0.0838142 -0.00751018 0.214692)
(0.08415 -3.25261e-19 0.2165)
(0.084122 0.0021707 0.216356)
(0.0836243 0.00939176 0.213564)
(0.00327009 0.0442096 0.203475)
(0.0030652 0.0440986 0.203262)
(0.0485021 0.0064791 0.206564)
(0.0495596 0.0066354 0.20665)
(0.0442096 -0.00327009 0.203475)
(0.0440986 -0.0030652 0.203262)
(0.04113 -0.0320575 0.206294)
(0.0416734 -0.0332806 0.205755)
(-0.0380658 -0.0292828 0.20635)
(-0.0366267 -0.028828 0.205721)
(-0.0442096 0.00327009 0.203475)
(-0.0440986 0.0030652 0.203262)
(-0.0290226 0.0373848 0.206089)
(-0.0288377 0.0366753 0.205748)
(-0.0420053 0.0353702 0.204481)
(-0.0418264 0.0368876 0.203308)
(-0.0411219 0.0320434 0.206299)
(-0.0415756 0.0330036 0.205892)
(-0.0416751 0.0332857 0.205753)
(-0.0419964 0.0350109 0.204728)
(-0.0380658 0.0292828 0.20635)
(-0.0386731 0.0295921 0.206521)
(-0.0394381 0.0301062 0.206639)
(-0.0397391 0.0303549 0.20665)
(-0.0407372 0.0314492 0.206487)
(-0.0333498 0.029015 0.203262)
(-0.0345437 0.0287551 0.204322)
(-0.0353244 0.0287054 0.204912)
(-0.0366267 0.028828 0.205721)
(-0.0289948 0.0334147 0.203325)
(-0.028997 0.0334074 0.203318)
(-0.0287081 0.0355462 0.205065)
(-0.0287053 0.0353438 0.204926)
(-0.0297147 0.0388776 0.206564)
(-0.0295929 0.0386744 0.206521)
(-0.0332806 0.0416734 0.205755)
(-0.0320575 0.04113 0.206294)
(-0.0308053 0.040205 0.206618)
(-0.030352 0.0397359 0.20665)
(-0.0353702 0.0420053 0.204481)
(-0.0335189 0.0417468 0.205631)
(-0.0357353 0.0419945 0.204218)
(-0.0368944 0.0418248 0.203303)
(-0.0502118 -0.00664663 0.206618)
(-0.0517514 -0.00641523 0.206294)
(-0.0532209 -0.00581795 0.205631)
(-0.0549632 -0.0044259 0.204218)
(-0.0556629 -0.00348628 0.203303)
(-0.0495596 -0.0066354 0.20665)
(-0.0499992 -0.00665 0.206636)
(-0.0441266 -0.00311864 0.203318)
(-0.0441302 -0.00312534 0.203325)
(-0.0442352 -0.00331502 0.203522)
(-0.0454346 -0.00483525 0.205065)
(-0.0466614 -0.00575119 0.205942)
(-0.0469571 -0.00591296 0.206089)
(-0.0485021 -0.0064791 0.206564)
(-0.032389 0.0294036 0.202258)
(-0.0491753 0.00659866 0.206639)
(-0.0476227 0.00621053 0.20635)
(-0.0466641 0.00575277 0.205944)
(-0.0462835 0.00551452 0.205721)
(-0.044759 0.00409318 0.204322)
(-0.0527355 0.00606133 0.205892)
(-0.0510436 0.00656761 0.206487)
(-0.0500051 0.00665 0.206635)
(-0.049564 0.00663569 0.20665)
(-0.0533442 0.00574793 0.205557)
(-0.0544524 0.00493951 0.204728)
(-0.0556592 0.00349222 0.203308)
(-0.0335189 -0.0417468 0.205631)
(-0.0353702 -0.0420053 0.204481)
(-0.0320575 -0.04113 0.206294)
(-0.0357353 -0.0419945 0.204218)
(-0.0368944 -0.0418248 0.203303)
(-0.0290226 -0.0373848 0.206089)
(-0.0295929 -0.0386744 0.206521)
(-0.0297147 -0.0388776 0.206564)
(-0.030352 -0.0397359 0.20665)
(-0.0308053 -0.040205 0.206618)
(-0.0287081 -0.0355462 0.205065)
(-0.0287053 -0.0353438 0.204926)
(-0.0296123 -0.0320028 0.20181)
(-0.028997 -0.0334074 0.203318)
(-0.0289948 -0.0334147 0.203325)
(-0.0345437 -0.0287551 0.204322)
(-0.0333498 -0.029015 0.203262)
(-0.04335 -1.11142e-05 0.200012)
(-0.0353244 -0.0287054 0.204912)
(-0.0386731 -0.0295921 0.206521)
(-0.0394381 -0.0301062 0.206639)
(-0.0415756 -0.0330036 0.205892)
(-0.0411219 -0.0320434 0.206299)
(-0.0407372 -0.0314492 0.206487)
(-0.0397391 -0.0303549 0.20665)
(-0.0419964 -0.0350109 0.204728)
(-0.0420053 -0.0353702 0.204481)
(0.0044259 -0.0549632 0.204218)
(0.00348628 -0.0556629 0.203303)
(0.00593459 -0.0530005 0.205755)
(0.00581795 -0.0532209 0.205631)
(0.00591296 -0.0469571 0.206089)
(0.0064791 -0.0485021 0.206564)
(0.00575119 -0.0466614 0.205942)
(0.00665 -0.0499992 0.206636)
(0.00664663 -0.0502118 0.206618)
(0.00641523 -0.0517514 0.206294)
(0.00311864 -0.0441266 0.203318)
(0.00331502 -0.0442352 0.203522)
(0.00483525 -0.0454346 0.205065)
(0.00554205 -0.0463247 0.205748)
(1.11142e-05 -0.04335 0.200012)
(-0.00409318 -0.044759 0.204322)
(-0.00327009 -0.0442096 0.203475)
(-0.0030652 -0.0440986 0.203262)
(-0.00659866 -0.0491753 0.206639)
(-0.00621053 -0.0476227 0.20635)
(-0.00593216 -0.0530053 0.205753)
(-0.00606133 -0.0527355 0.205892)
(-0.00656761 -0.0510436 0.206487)
(-0.00665 -0.0500051 0.206635)
(-0.00663569 -0.049564 0.20665)
(-0.00574793 -0.0533442 0.205557)
(-0.00504525 -0.0543322 0.204835)
(-0.00331224 -0.0557664 0.203135)
(-0.00493951 -0.0544524 0.204728)
(0.0417468 -0.0335189 0.205631)
(0.0420053 -0.0353702 0.204481)
(0.0419945 -0.0357353 0.204218)
(0.0418248 -0.0368944 0.203303)
(0.0397359 -0.030352 0.20665)
(0.040205 -0.0308053 0.206618)
(0.0366753 -0.0288377 0.205748)
(0.0373848 -0.0290226 0.206089)
(0.0386744 -0.0295929 0.206521)
(0.0388776 -0.0297147 0.206564)
(0.0355462 -0.0287081 0.205065)
(0.0353438 -0.0287053 0.204926)
(0.0320028 -0.0296123 0.20181)
(0.0334074 -0.028997 0.203318)
(0.028828 -0.0366267 0.205721)
(0.0287054 -0.0353244 0.204912)
(0.0292828 -0.0380658 0.20635)
(0.0287551 -0.0345437 0.204322)
(0.029015 -0.0333498 0.203262)
(0.0295921 -0.0386731 0.206521)
(0.0301062 -0.0394381 0.206639)
(0.0330036 -0.0415756 0.205892)
(0.0320434 -0.0411219 0.206299)
(0.0314492 -0.0407372 0.206487)
(0.0303549 -0.0397391 0.20665)
(0.0368876 -0.0418264 0.203308)
(0.0353702 -0.0420053 0.204481)
(0.0350109 -0.0419964 0.204728)
(0.0332857 -0.0416751 0.205753)
(0.0374864 -0.0416546 0.202785)
(0.0491753 -0.00659866 0.206639)
(0.0476227 -0.00621053 0.20635)
(0.049564 -0.00663569 0.20665)
(0.0466641 -0.00575277 0.205944)
(0.0462835 -0.00551452 0.205721)
(0.044759 -0.00409318 0.204322)
(0.0527355 -0.00606133 0.205892)
(0.0510436 -0.00656761 0.206487)
(0.0500051 -0.00665 0.206635)
(0.0556592 -0.00349222 0.203308)
(0.0544524 -0.00493951 0.204728)
(0.0533442 -0.00574793 0.205557)
(0.0530053 -0.00593216 0.205753)
(0.0557664 -0.00331224 0.203135)
(0.0549632 0.0044259 0.204218)
(0.0556629 0.00348628 0.203303)
(0.0530005 0.00593459 0.205755)
(0.0532209 0.00581795 0.205631)
(0.0499992 0.00665 0.206636)
(0.0502118 0.00664663 0.206618)
(0.0517514 0.00641523 0.206294)
(0.0469571 0.00591296 0.206089)
(0.0466614 0.00575119 0.205942)
(0.0441266 0.00311864 0.203318)
(0.0442352 0.00331502 0.203522)
(0.0454346 0.00483525 0.205065)
(0.0463247 0.00554205 0.205748)
(0.0366267 0.028828 0.205721)
(0.0353244 0.0287054 0.204912)
(0.0380658 0.0292828 0.20635)
(0.0345437 0.0287551 0.204322)
(0.0333498 0.029015 0.203262)
(0.0386731 0.0295921 0.206521)
(0.0394381 0.0301062 0.206639)
(0.0416751 0.0332857 0.205753)
(0.0415756 0.0330036 0.205892)
(0.0411219 0.0320434 0.206299)
(0.0407372 0.0314492 0.206487)
(0.0397391 0.0303549 0.20665)
(0.0419964 0.0350109 0.204728)
(0.0420053 0.0353702 0.204481)
(0.0416546 0.0374864 0.202785)
(0.0418264 0.0368876 0.203308)
(0.0332806 0.0416734 0.205755)
(0.0335189 0.0417468 0.205631)
(0.0353702 0.0420053 0.204481)
(0.0357353 0.0419945 0.204218)
(0.0368944 0.0418248 0.203303)
(0.0308053 0.040205 0.206618)
(0.0320575 0.04113 0.206294)
(0.0290226 0.0373848 0.206089)
(0.0295929 0.0386744 0.206521)
(0.030352 0.0397359 0.20665)
(0.028997 0.0334074 0.203318)
(0.0287053 0.0353438 0.204926)
(0.0287081 0.0355462 0.205065)
(0.0288377 0.0366753 0.205748)
(0.0296123 0.0320028 0.20181)
(0.00659866 0.0491753 0.206639)
(0.00621053 0.0476227 0.20635)
(0.00575277 0.0466641 0.205944)
(0.00551452 0.0462835 0.205721)
(0.00409318 0.044759 0.204322)
(0.00593216 0.0530053 0.205753)
(0.00606133 0.0527355 0.205892)
(0.00656761 0.0510436 0.206487)
(0.00665 0.0500051 0.206635)
(0.00663569 0.049564 0.20665)
(0.00574793 0.0533442 0.205557)
(0.00493951 0.0544524 0.204728)
(0.00331224 0.0557664 0.203135)
(0.00349222 0.0556592 0.203308)
(-0.00581795 0.0532209 0.205631)
(-0.0044259 0.0549632 0.204218)
(-0.00348628 0.0556629 0.203303)
(-0.00591296 0.0469571 0.206089)
(-0.0064791 0.0485021 0.206564)
(-0.00575119 0.0466614 0.205942)
(-0.00554205 0.0463247 0.205748)
(-0.00665 0.0499992 0.206636)
(-0.00664663 0.0502118 0.206618)
(-0.00641523 0.0517514 0.206294)
(-0.00593459 0.0530005 0.205755)
(-0.00483525 0.0454346 0.205065)
(-0.00311864 0.0441266 0.203318)
(-0.00331502 0.0442352 0.203522)
(-0.032389 -0.0294036 0.202258)
(-0.0418264 -0.0368876 0.203308)
(-0.00294737 -0.0559612 0.202785)
(-0.04335 1.11142e-05 0.200012)
(-0.00575277 -0.0466641 0.205944)
)

// edges

501
(
(46 60)
(60 61)
(47 46)
(62 63)
(48 62)
(49 48)
(47 50)
(51 49)
(63 64)
(65 46)
(64 66)
(67 65)
(66 68)
(69 67)
(68 70)
(71 69)
(70 72)
(73 71)
(72 74)
(75 73)
(74 76)
(77 75)
(76 78)
(79 77)
(78 80)
(81 79)
(80 82)
(83 81)
(82 84)
(85 83)
(84 48)
(61 85)
(86 87)
(87 88)
(89 90)
(91 86)
(90 92)
(92 91)
(88 93)
(93 94)
(94 95)
(96 97)
(97 89)
(98 96)
(95 99)
(99 98)
(100 101)
(101 102)
(103 104)
(105 100)
(104 106)
(106 105)
(102 107)
(107 108)
(108 109)
(110 111)
(111 103)
(112 110)
(109 113)
(113 112)
(114 115)
(59 57)
(116 117)
(118 119)
(120 121)
(122 123)
(124 125)
(126 127)
(128 129)
(130 131)
(132 133)
(134 135)
(136 137)
(138 139)
(140 141)
(142 143)
(144 145)
(146 121)
(147 119)
(148 117)
(149 150)
(151 116)
(152 118)
(153 120)
(154 155)
(156 157)
(158 159)
(160 161)
(162 163)
(164 165)
(166 167)
(168 169)
(170 171)
(172 171)
(173 169)
(174 167)
(148 172)
(147 173)
(146 174)
(53 175)
(125 151)
(127 152)
(129 153)
(133 124)
(135 126)
(137 128)
(176 177)
(55 178)
(54 179)
(141 132)
(143 134)
(145 136)
(180 181)
(182 183)
(184 185)
(158 140)
(156 142)
(154 144)
(186 187)
(188 189)
(190 191)
(164 159)
(162 157)
(160 155)
(192 193)
(194 57)
(195 58)
(170 165)
(168 163)
(166 161)
(52 0)
(0 1)
(196 2)
(2 197)
(197 3)
(3 198)
(198 0)
(1 199)
(199 4)
(4 200)
(200 5)
(6 196)
(201 6)
(5 6)
(202 7)
(8 202)
(7 203)
(203 204)
(204 9)
(205 10)
(9 205)
(10 206)
(206 207)
(207 11)
(11 208)
(208 8)
(209 210)
(12 211)
(210 12)
(211 13)
(13 212)
(14 213)
(15 14)
(214 15)
(212 15)
(16 215)
(213 16)
(17 209)
(215 17)
(18 216)
(216 19)
(19 217)
(217 218)
(218 20)
(219 21)
(20 219)
(21 220)
(220 221)
(221 22)
(22 222)
(222 18)
(223 224)
(23 225)
(224 23)
(225 24)
(25 226)
(227 25)
(24 227)
(25 26)
(26 228)
(228 27)
(27 229)
(28 223)
(229 28)
(230 29)
(29 231)
(231 232)
(232 30)
(30 233)
(31 234)
(233 31)
(234 32)
(32 235)
(235 236)
(236 33)
(33 230)
(34 237)
(237 35)
(35 238)
(36 239)
(238 36)
(239 240)
(240 37)
(37 241)
(241 38)
(38 242)
(39 34)
(56 39)
(242 39)
(243 40)
(40 244)
(244 245)
(245 41)
(41 246)
(42 247)
(246 42)
(247 43)
(43 248)
(248 249)
(249 44)
(44 243)
(250 251)
(252 253)
(254 252)
(255 254)
(256 255)
(253 257)
(257 258)
(258 47)
(259 260)
(260 261)
(261 262)
(262 263)
(263 264)
(264 250)
(265 266)
(251 267)
(267 268)
(268 269)
(269 270)
(270 271)
(271 49)
(46 50)
(50 259)
(49 50)
(47 51)
(51 48)
(51 272)
(272 273)
(273 274)
(274 275)
(275 265)
(266 256)
(276 277)
(278 279)
(280 281)
(282 283)
(284 285)
(286 287)
(288 289)
(290 291)
(292 293)
(293 294)
(294 295)
(295 290)
(296 297)
(297 298)
(298 299)
(299 300)
(300 292)
(301 302)
(302 303)
(303 304)
(304 296)
(305 306)
(306 52)
(289 307)
(307 308)
(308 305)
(309 310)
(310 288)
(311 312)
(312 313)
(313 314)
(314 309)
(315 316)
(317 315)
(318 317)
(319 320)
(320 321)
(321 322)
(322 323)
(324 325)
(325 319)
(326 327)
(327 328)
(328 329)
(329 330)
(330 331)
(331 332)
(332 324)
(333 301)
(334 335)
(335 336)
(336 337)
(337 338)
(338 286)
(339 340)
(340 341)
(341 342)
(342 334)
(343 339)
(344 343)
(345 344)
(346 347)
(348 346)
(347 349)
(349 350)
(351 352)
(352 353)
(353 354)
(354 355)
(355 348)
(356 351)
(357 356)
(358 359)
(359 360)
(360 357)
(361 362)
(363 326)
(285 364)
(364 361)
(365 284)
(366 365)
(367 368)
(368 369)
(369 370)
(370 366)
(371 367)
(372 371)
(373 374)
(375 376)
(376 373)
(377 378)
(379 377)
(378 380)
(380 381)
(381 382)
(382 375)
(383 384)
(384 385)
(385 386)
(386 379)
(387 383)
(53 45)
(45 388)
(388 389)
(389 390)
(391 392)
(393 394)
(394 395)
(395 396)
(396 397)
(397 391)
(398 393)
(399 398)
(400 401)
(283 402)
(402 403)
(403 404)
(404 405)
(406 407)
(407 282)
(408 409)
(409 410)
(410 411)
(411 406)
(412 408)
(413 412)
(414 415)
(415 413)
(416 417)
(418 416)
(419 420)
(417 419)
(421 418)
(54 55)
(422 421)
(423 424)
(424 425)
(425 426)
(426 422)
(427 428)
(428 429)
(429 430)
(430 423)
(431 427)
(432 433)
(434 432)
(433 435)
(435 436)
(436 437)
(437 280)
(438 439)
(439 440)
(440 434)
(441 442)
(442 443)
(443 444)
(444 438)
(445 441)
(446 447)
(448 449)
(449 446)
(279 450)
(450 451)
(451 452)
(452 448)
(453 278)
(454 453)
(455 456)
(456 457)
(457 458)
(458 454)
(459 460)
(461 459)
(460 462)
(462 463)
(463 56)
(464 461)
(465 464)
(466 467)
(467 468)
(468 469)
(469 470)
(470 465)
(471 466)
(472 471)
(473 474)
(474 472)
(475 476)
(476 477)
(477 478)
(478 479)
(480 481)
(481 475)
(482 483)
(483 59)
(57 58)
(59 484)
(484 480)
(485 486)
(486 487)
(487 488)
(488 482)
(489 485)
(490 491)
(491 492)
(492 493)
(493 494)
(494 276)
(495 496)
(496 497)
(497 498)
(498 499)
(499 490)
(500 495)
(501 500)
(502 503)
(503 501)
(504 505)
(505 506)
(316 311)
(507 508)
(509 507)
(510 509)
(508 511)
(511 512)
(512 513)
(513 514)
(515 510)
(516 517)
(362 518)
(519 372)
(520 400)
(287 521)
(392 522)
(522 45)
(401 399)
(517 515)
(514 504)
)

// concaveStart mixedStart nonFeatureStart
45 46 60
// internalStart flatStart openStart multipleStart
231 501 501 501
// normals

974
(
(0.992709 -0.120537 -4.37411e-06)
(0 0 -1)
(0.992707 0.120537 -0.00164649)
(-0 0 -1)
(0.981136 -0.193318 -0.000462039)
(0.259844 -0.965503 0.0168851)
(0.992709 -0.120537 2.00237e-17)
(0 0 1)
(0.992708 0.120537 0.00127333)
(0 0 1)
(0.982321 0.187205 0.000581298)
(0.360012 0.932819 -0.0155078)
(0.97903 0.203682 -0.00371203)
(0.982536 -0.186039 0.00341509)
(0.885456 -0.464723 0)
(0 0 1)
(0.885456 -0.464723 0)
(-0 0 -1)
(0.568065 -0.822984 0)
(0 0 1)
(0.568065 -0.822984 0)
(0 0 -1)
(0.120537 -0.992709 0)
(0 0 1)
(0.120537 -0.992709 0)
(0 -0 -1)
(-0.354605 -0.935016 0)
(0 0 1)
(-0.354605 -0.935016 0)
(0 0 -1)
(-0.748511 -0.663123 0)
(0 0 1)
(-0.748511 -0.663123 0)
(0 0 -1)
(-0.970942 -0.239316 0)
(-0 0 1)
(-0.970942 -0.239316 0)
(-0 0 -1)
(-0.970942 0.239316 0)
(0 0 1)
(-0.970942 0.239316 0)
(0 0 -1)
(-0.748511 0.663123 0)
(0 0 1)
(-0.748511 0.663123 0)
(0 0 -1)
(-0.354605 0.935016 0)
(0 0 1)
(-0.354605 0.935016 0)
(0 0 -1)
(0.120537 0.992709 -0)
(0 -0 1)
(0.120537 0.992709 0)
(0 0 -1)
(0.568065 0.822984 -0)
(0 0 1)
(0.568065 0.822984 0)
(0 0 -1)
(0.885456 0.464723 -0)
(0 0 1)
(0.885456 0.464723 0)
(0 0 -1)
(0.99563 0.090295 -0.023814)
(0 0.971181 0.238345)
(0.994394 0.097786 -0.0402402)
(0 0.749217 0.662325)
(0.999921 -0.0113526 -0.00544392)
(-0 -0.0582088 -0.998304)
(0.995614 0.0910501 0.0214859)
(0 0.977141 -0.212592)
(0.995321 0.0378267 0.0889136)
(0 0.408228 -0.91288)
(0 0.784996 -0.619501)
(0.997878 0.0638543 -0.0127324)
(0 0.360607 0.932718)
(0.999913 0.0130593 -0.00169779)
(0 0.0663721 0.997795)
(0.998964 -0.0454028 0.00306065)
(0 -0.234064 0.972221)
(0.996074 -0.0578631 0.0669895)
(0 -0.843364 -0.537343)
(0 -0.514705 -0.857367)
(0.994477 -0.104471 0.0100411)
(0 -0.9934 -0.114701)
(0.994695 -0.0980184 -0.0312097)
(0 -0.655267 0.755397)
(0 -0.933416 0.358795)
(0.99563 0.0902943 -0.0238143)
(0 0.97118 0.238347)
(0.994394 0.0977838 -0.0402387)
(0 0.749245 0.662293)
(0.999921 -0.0113525 -0.00544391)
(-0 -0.05818 -0.998306)
(0.995614 0.0910508 0.0214853)
(0 0.977142 -0.212587)
(0.995321 0.0378377 0.0889071)
(0 0.408159 -0.912911)
(0 0.784988 -0.619511)
(0.997878 0.0638542 -0.0127324)
(0 0.360616 0.932715)
(0.999913 0.0130595 -0.00169785)
(0 0.0661948 0.997807)
(0.998964 -0.0454028 0.00306072)
(0 -0.234044 0.972226)
(0.996075 -0.057881 0.0669706)
(0 -0.843391 -0.5373)
(0 -0.514644 -0.857404)
(0.994477 -0.104471 0.0100411)
(0 -0.9934 -0.1147)
(0.994695 -0.0980166 -0.0312114)
(0 -0.655271 0.755394)
(0 -0.933413 0.358805)
(0.99106 0.0918349 -0.0967833)
(0.764151 0.0708088 -0.641139)
(-0.577805 0.168179 0.798659)
(-0.0481904 -0.06433 0.996764)
(0.606338 0.375429 -0.701004)
(0.223594 0.138444 -0.9648)
(0.223594 0.138443 -0.9648)
(-0.223594 -0.138444 -0.9648)
(-0.223595 -0.138444 -0.9648)
(-0.606339 -0.375429 -0.701004)
(-0.0918374 0.991081 -0.0965604)
(-0.065802 0.710116 -0.701003)
(-0.0658019 0.710115 -0.701004)
(-0.0242652 0.261863 -0.9648)
(-0.0242652 0.261863 -0.9648)
(0.0242652 -0.261863 -0.9648)
(0.0242652 -0.261863 -0.9648)
(0.0658017 -0.710115 -0.701005)
(-0.737881 0.672667 -0.0552251)
(-0.527031 0.480452 -0.701003)
(-0.52703 0.480451 -0.701004)
(-0.194348 0.177172 -0.9648)
(-0.194348 0.177172 -0.9648)
(0.194348 -0.177172 -0.9648)
(0.194348 -0.177172 -0.9648)
(0.527029 -0.480451 -0.701005)
(-0.999144 0 -0.0413629)
(-0.713158 0 -0.701003)
(-0.713158 0 -0.701003)
(-0.262985 0 -0.9648)
(-0.262985 0 -0.9648)
(0.262985 0 -0.9648)
(0.262985 0 -0.9648)
(0.713158 0 -0.701003)
(-0.701015 -0.131042 -0.701004)
(-0.258507 -0.0483234 -0.9648)
(-0.258507 -0.0483234 -0.9648)
(0.258507 0.0483234 -0.9648)
(0.258507 0.0483234 -0.9648)
(0.701015 0.131042 -0.701004)
(0.594459 0.78719 -0.164163)
(0.429774 0.569112 -0.701004)
(0.429773 0.569112 -0.701004)
(0.158484 0.209866 -0.9648)
(0.158484 0.209867 -0.9648)
(-0.158484 -0.209867 -0.9648)
(-0.158484 -0.209866 -0.9648)
(-0.429773 -0.569112 -0.701004)
(0.52703 0.480452 -0.701003)
(0.194348 0.177172 -0.9648)
(0.194348 0.177172 -0.9648)
(-0.194348 -0.177172 -0.9648)
(-0.194348 -0.177172 -0.9648)
(-0.52703 -0.480452 -0.701003)
(0.0658018 0.710115 -0.701004)
(0.0242652 0.261863 -0.9648)
(0.0242652 0.261863 -0.9648)
(-0.0242652 -0.261863 -0.9648)
(-0.0242652 -0.261863 -0.9648)
(-0.065802 -0.710116 -0.701003)
(-0.429773 0.569112 -0.701004)
(-0.158484 0.209867 -0.9648)
(-0.158484 0.209866 -0.9648)
(0.158484 -0.209866 -0.9648)
(0.158484 -0.209867 -0.9648)
(0.429774 -0.569112 -0.701004)
(0.606339 -0.375429 -0.701003)
(0.223594 -0.138444 -0.9648)
(0.223594 -0.138444 -0.9648)
(-0.223595 0.138444 -0.9648)
(-0.223594 0.138444 -0.9648)
(-0.606338 0.375429 -0.701004)
(0.701014 -0.131042 -0.701004)
(0.258507 -0.0483234 -0.9648)
(0.258507 -0.0483234 -0.9648)
(-0.258507 0.0483234 -0.9648)
(-0.258507 0.0483234 -0.9648)
(-0.701015 0.131042 -0.701004)
(0.187879 0.660325 0.727099)
(0.264637 0.930104 0.254701)
(0.195165 0.685934 -0.701004)
(0.0719693 0.252946 -0.9648)
(0.0719693 0.252946 -0.9648)
(-0.0719692 -0.252945 -0.9648)
(-0.0719693 -0.252946 -0.9648)
(-0.195165 -0.685933 -0.701004)
(-0.317882 0.638394 -0.701002)
(-0.117222 0.235414 -0.9648)
(-0.117222 0.235414 -0.9648)
(0.117223 -0.235415 -0.9648)
(0.117222 -0.235414 -0.9648)
(0.317881 -0.638392 -0.701004)
(0.31788 -0.63839 0.701007)
(0.117224 -0.235418 0.964799)
(0.117224 -0.235418 0.964799)
(-0.117224 0.235418 0.964799)
(-0.117224 0.235418 0.964799)
(-0.317881 0.638391 0.701006)
(-0.665 0.257622 -0.701004)
(-0.245226 0.0950011 -0.9648)
(-0.245226 0.095001 -0.9648)
(0.245226 -0.0950012 -0.9648)
(0.245227 -0.0950012 -0.9648)
(0.665 -0.257622 -0.701003)
(0.664998 -0.257621 0.701006)
(0.24523 -0.0950026 0.964799)
(0.24523 -0.0950028 0.964799)
(-0.24523 0.0950026 0.964799)
(-0.24523 0.0950024 0.964799)
(-0.664997 0.257621 0.701006)
(-0.664999 -0.257622 -0.701004)
(-0.245226 -0.0950009 -0.9648)
(-0.245226 -0.0950011 -0.9648)
(0.245227 0.0950013 -0.9648)
(0.245226 0.0950011 -0.9648)
(0.665 0.257622 -0.701003)
(0.664998 0.257622 0.701005)
(0.24523 0.0950027 0.964799)
(0.24523 0.0950026 0.964799)
(-0.24523 -0.0950025 0.964799)
(-0.24523 -0.0950025 0.964799)
(-0.664998 -0.257621 0.701006)
(-0.317882 -0.638393 -0.701004)
(-0.117222 -0.235414 -0.9648)
(-0.117222 -0.235414 -0.9648)
(0.117222 0.235414 -0.9648)
(0.117222 0.235415 -0.9648)
(0.317881 0.638392 -0.701005)
(0.317881 0.63839 0.701006)
(0.117224 0.235418 0.964799)
(0.117224 0.235418 0.964799)
(-0.117224 -0.235418 0.964799)
(-0.117224 -0.235418 0.964799)
(-0.317881 -0.638392 0.701005)
(0.195165 -0.685933 -0.701004)
(0.0719691 -0.252946 -0.9648)
(0.0719695 -0.252946 -0.9648)
(-0.0719694 0.252946 -0.9648)
(-0.0719691 0.252945 -0.9648)
(-0.195164 0.685933 -0.701005)
(0.707107 -0.707107 4.54194e-06)
(0.965926 -0.258819 -4.62565e-06)
(0 -0 1)
(-0.25882 0.965926 2.13433e-06)
(0 -0 1)
(0.25882 0.965926 4.47798e-06)
(0 0 1)
(0.707106 0.707107 -9.86271e-07)
(0 0 1)
(0.965926 0.258819 -1.67492e-06)
(0 0 1)
(-0 0 1)
(0.258819 -0.965926 4.41999e-06)
(0 0 1)
(-0.258819 -0.965926 1.20836e-06)
(0 0 1)
(-0.707107 -0.707106 -2.17935e-06)
(-0 0 1)
(-0.965926 -0.25882 -2.15838e-06)
(0 0 1)
(-0.707107 0.707107 5.66857e-07)
(0 0 1)
(-0.706465 0.707748 2.30012e-06)
(-0.965926 0.25882 -2.31746e-06)
(0 0 1)
(-0.707107 0.707107 3.18218e-06)
(0 0 1)
(-0.965926 0.25882 2.10972e-06)
(0 0 1)
(-0.258819 0.965926 7.42008e-07)
(0 -0 1)
(0.258819 0.965926 -1.82007e-06)
(0 0 1)
(0.707107 0.707107 -9.27266e-06)
(0 0 1)
(0.965926 -0.258819 1.65224e-06)
(0 0 1)
(0.965926 0.258819 -1.77497e-16)
(-0 0 1)
(0.707107 -0.707107 2.25601e-06)
(0 -0 1)
(0.258819 -0.965926 1.09678e-07)
(0 0 1)
(-0.258819 -0.965926 1.66744e-05)
(0 0 1)
(-0.707107 -0.707107 -3.95245e-06)
(-0 0 1)
(-0.965926 -0.25882 -1.76649e-16)
(0 0 1)
(-0.707107 -0.707107 5.66857e-07)
(-0 0 1)
(-0.965926 0.25882 2.16e-06)
(0 0 1)
(-0.965926 -0.25882 2.13433e-06)
(0 0 1)
(-0.707107 0.707106 -1.21099e-06)
(0 0 1)
(-0.258819 0.965926 -4.49617e-06)
(0 -0 1)
(0.965926 0.258819 1.6649e-06)
(0 0 1)
(0.707107 0.707107 4.54194e-06)
(0 0 1)
(0.70898 0.705228 9.57572e-06)
(0.258819 0.965926 -9.84511e-06)
(0 0 1)
(0.707106 -0.707107 -4.55695e-06)
(0 -0 1)
(0.965926 -0.258819 9.7924e-07)
(-0 0 1)
(-0.25882 -0.965926 -5.70296e-07)
(0 0 1)
(0.25882 -0.965926 -2.15838e-06)
(0 0 1)
(-0.25882 -0.965926 2.10972e-06)
(0 0 1)
(-0.707107 -0.707107 3.18218e-06)
(-0 0 1)
(-0.965926 -0.258819 7.42008e-07)
(0 0 1)
(-0.965926 0.258819 -1.82007e-06)
(0 0 1)
(-0.707107 0.707107 -9.27266e-06)
(0 0 1)
(0.258819 0.965926 1.65224e-06)
(0 0 1)
(-0.258819 0.965926 -3.33338e-17)
(0 -0 1)
(0.707107 0.707107 2.25601e-06)
(0 0 1)
(0.965926 0.258819 1.09678e-07)
(0 0 1)