/*--------------------------------*- C++ -*----------------------------------*\
| =========                 |                                                 |
| \\      /  F ield         | OpenFOAM: The Open Source CFD Toolbox           |
|  \\    /   O peration     | Version:  v2306                                 |
|   \\  /    A nd           | Website:  www.openfoam.com                      |
|    \\/     M anipulation  |                                                 |
\*---------------------------------------------------------------------------*/
FoamFile
{
    version     2.0;
    format      ascii;
    class       volVectorField;
    object      U;
}
// * * * * * * * * * * * * * * * * * * * * * * * * * * * * * * * * * * * * * //

dimensions      [0 1 -1 0 0 0 0];

internalField   uniform (0 0 0);

boundaryField
{
    BCWALL_1
    {
        type            flowRateInletVelocity;
        massFlowRate    constant 0.03; // kg/s
       //type             pressureInletOutletVelocity;
       //value            uniform ( -0.01 0 0 );
    }
    BCWALL_2
    {
        type            flowRateOutletVelocity;
        massFlowRate    constant 0.03; // kg/s
       //type             pressureInletOutletVelocity;
       //value            uniform ( 0.01 0 0 );
    }
    ".*"
    {
        type            noSlip;
    }
}


// ************************************************************************* //
